/*---------------------------------------------------------------------------*\
| =========                 |                                                 |
| \\      /  F ield         | OpenFOAM: The Open Source CFD Toolbox           |
|  \\    /   O peration     | Version:  2012                                  |
|   \\  /    A nd           | Website:  www.openfoam.com                      |
|    \\/     M anipulation  |                                                 |
\*---------------------------------------------------------------------------*/
Build  : _269d0ffd5c-20210619 OPENFOAM=2012 patch=210618
Arch   : "LSB;label=32;scalar=64"
Exec   : simpleFoam -parallel
Date   : Jul 02 2021
Time   : 00:16:33
Host   : pop-os
PID    : 261416
I/O    : uncollated
Case   : /home/dileepn/FreeCAD/CfdOfRuns/FlowInCyl/case
nProcs : 4
Hosts  :
(
    (pop-os 4)
)
Pstream initialized with:
    floatTransfer      : 0
    nProcsSimpleSum    : 0
    commsType          : nonBlocking
    polling iterations : 0
trapFpe: Floating point exception trapping enabled (FOAM_SIGFPE).
fileModificationChecking : Monitoring run-time modified files using timeStampMaster (fileModificationSkew 5, maxFileModificationPolls 20)
allowSystemOperations : Allowing user-supplied system call operations

// * * * * * * * * * * * * * * * * * * * * * * * * * * * * * * * * * * * * * //
Create time

Create mesh for time = 0


SIMPLE: convergence criteria
    field p	 tolerance 0.0001
    field U	 tolerance 0.0001
    field "(k|epsilon|omega|f|v2|nuTilda)"	 tolerance 0.0001

Reading field p

Reading field U

Reading/calculating face flux field phi

Selecting incompressible transport model Newtonian
Selecting turbulence model type RAS
Selecting RAS turbulence model kOmegaSST
Selecting patchDistMethod meshWave
RAS
{
    RASModel        kOmegaSST;
    turbulence      on;
    printCoeffs     on;
    alphaK1         0.85;
    alphaK2         1;
    alphaOmega1     0.5;
    alphaOmega2     0.856;
    gamma1          0.55555556;
    gamma2          0.44;
    beta1           0.075;
    beta2           0.0828;
    betaStar        0.09;
    a1              0.31;
    b1              1;
    c1              10;
    F3              false;
    decayControl    false;
    kInf            0;
    omegaInf        0;
}

No MRF models present

No finite volume options present

Starting time loop

Time = 1

smoothSolver:  Solving for Ux, Initial residual = 1, Final residual = 0.02833461, No Iterations 2
smoothSolver:  Solving for Uy, Initial residual = 1, Final residual = 0.088221423, No Iterations 1
smoothSolver:  Solving for Uz, Initial residual = 1, Final residual = 0.027479494, No Iterations 2
GAMG:  Solving for p, Initial residual = 1, Final residual = 0.0079694158, No Iterations 8
GAMG:  Solving for p, Initial residual = 0.00038276191, Final residual = 1.6518215e-06, No Iterations 4
GAMG:  Solving for p, Initial residual = 0.0001202468, Final residual = 5.2392132e-07, No Iterations 4
GAMG:  Solving for p, Initial residual = 4.2481261e-05, Final residual = 2.2439606e-07, No Iterations 4
GAMG:  Solving for p, Initial residual = 1.616157e-05, Final residual = 6.2120796e-08, No Iterations 4
GAMG:  Solving for p, Initial residual = 6.1264117e-06, Final residual = 2.6620075e-08, No Iterations 4
time step continuity errors : sum local = 0.022584314, global = 0.0029016668, cumulative = 0.0029016668
smoothSolver:  Solving for omega, Initial residual = 0.0013871524, Final residual = 5.9040104e-05, No Iterations 2
smoothSolver:  Solving for k, Initial residual = 1, Final residual = 0.05987489, No Iterations 2
ExecutionTime = 0.26 s  ClockTime = 0 s

Time = 2

smoothSolver:  Solving for Ux, Initial residual = 0.33845022, Final residual = 0.017703629, No Iterations 1
smoothSolver:  Solving for Uy, Initial residual = 0.19709206, Final residual = 0.016904327, No Iterations 1
smoothSolver:  Solving for Uz, Initial residual = 0.33693947, Final residual = 0.017269572, No Iterations 1
GAMG:  Solving for p, Initial residual = 0.94427509, Final residual = 0.0068507747, No Iterations 8
GAMG:  Solving for p, Initial residual = 0.00073015113, Final residual = 3.0671089e-06, No Iterations 4
GAMG:  Solving for p, Initial residual = 0.00020859028, Final residual = 1.5136322e-06, No Iterations 3
GAMG:  Solving for p, Initial residual = 6.8329538e-05, Final residual = 5.4387124e-07, No Iterations 3
GAMG:  Solving for p, Initial residual = 2.2123389e-05, Final residual = 1.5537874e-07, No Iterations 3
GAMG:  Solving for p, Initial residual = 8.0464384e-06, Final residual = 4.6411426e-08, No Iterations 3
time step continuity errors : sum local = 0.022755923, global = -0.0009620661, cumulative = 0.0019396007
smoothSolver:  Solving for omega, Initial residual = 0.018720193, Final residual = 0.0010336316, No Iterations 2
smoothSolver:  Solving for k, Initial residual = 0.20250366, Final residual = 0.014358448, No Iterations 2
ExecutionTime = 0.39 s  ClockTime = 0 s

Time = 3

smoothSolver:  Solving for Ux, Initial residual = 0.35271148, Final residual = 0.030891912, No Iterations 1
smoothSolver:  Solving for Uy, Initial residual = 0.97046357, Final residual = 0.018196891, No Iterations 2
smoothSolver:  Solving for Uz, Initial residual = 0.35867902, Final residual = 0.030324872, No Iterations 1
GAMG:  Solving for p, Initial residual = 0.011212839, Final residual = 9.7571478e-05, No Iterations 4
GAMG:  Solving for p, Initial residual = 0.0010605447, Final residual = 6.1186964e-06, No Iterations 4
GAMG:  Solving for p, Initial residual = 0.00020297522, Final residual = 1.5544015e-06, No Iterations 3
GAMG:  Solving for p, Initial residual = 5.5592844e-05, Final residual = 3.1698293e-07, No Iterations 3
GAMG:  Solving for p, Initial residual = 1.873687e-05, Final residual = 7.69258e-08, No Iterations 3
GAMG:  Solving for p, Initial residual = 6.345126e-06, Final residual = 2.3090157e-08, No Iterations 3
time step continuity errors : sum local = 0.0028204087, global = 0.00027347393, cumulative = 0.0022130747
smoothSolver:  Solving for omega, Initial residual = 0.013883962, Final residual = 0.00051749219, No Iterations 2
smoothSolver:  Solving for k, Initial residual = 0.12502954, Final residual = 0.0086472428, No Iterations 2
ExecutionTime = 0.51 s  ClockTime = 1 s

Time = 4

smoothSolver:  Solving for Ux, Initial residual = 0.18265766, Final residual = 0.014884214, No Iterations 1
smoothSolver:  Solving for Uy, Initial residual = 0.93745042, Final residual = 0.017709968, No Iterations 2
smoothSolver:  Solving for Uz, Initial residual = 0.17598767, Final residual = 0.014023035, No Iterations 1
GAMG:  Solving for p, Initial residual = 0.019607686, Final residual = 8.5583838e-05, No Iterations 8
GAMG:  Solving for p, Initial residual = 0.0012546852, Final residual = 5.1811842e-06, No Iterations 4
GAMG:  Solving for p, Initial residual = 0.00038044689, Final residual = 2.2680112e-06, No Iterations 3
GAMG:  Solving for p, Initial residual = 0.00013236131, Final residual = 6.8391404e-07, No Iterations 3
GAMG:  Solving for p, Initial residual = 4.8681907e-05, Final residual = 2.4361273e-07, No Iterations 3
GAMG:  Solving for p, Initial residual = 1.8573195e-05, Final residual = 7.3911571e-08, No Iterations 3
time step continuity errors : sum local = 0.015007837, global = 0.0017122056, cumulative = 0.0039252803
smoothSolver:  Solving for omega, Initial residual = 0.0099694137, Final residual = 0.00039101959, No Iterations 2
smoothSolver:  Solving for k, Initial residual = 0.074074522, Final residual = 0.0054243815, No Iterations 2
ExecutionTime = 0.64 s  ClockTime = 1 s

Time = 5

smoothSolver:  Solving for Ux, Initial residual = 0.34749909, Final residual = 0.005059593, No Iterations 2
smoothSolver:  Solving for Uy, Initial residual = 0.65979547, Final residual = 0.012372482, No Iterations 2
smoothSolver:  Solving for Uz, Initial residual = 0.34626349, Final residual = 0.0048531908, No Iterations 2
GAMG:  Solving for p, Initial residual = 0.056906665, Final residual = 0.00031856138, No Iterations 8
GAMG:  Solving for p, Initial residual = 0.000659128, Final residual = 3.0133421e-06, No Iterations 4
GAMG:  Solving for p, Initial residual = 0.00022315662, Final residual = 9.0652465e-07, No Iterations 4
GAMG:  Solving for p, Initial residual = 7.1544877e-05, Final residual = 2.7242206e-07, No Iterations 4
GAMG:  Solving for p, Initial residual = 2.6435609e-05, Final residual = 1.9836077e-07, No Iterations 3
GAMG:  Solving for p, Initial residual = 9.5180508e-06, Final residual = 6.2778178e-08, No Iterations 3
time step continuity errors : sum local = 0.017067973, global = 0.0015240063, cumulative = 0.0054492866
smoothSolver:  Solving for omega, Initial residual = 0.0058941942, Final residual = 0.00024535945, No Iterations 2
smoothSolver:  Solving for k, Initial residual = 0.069068689, Final residual = 0.0048613273, No Iterations 2
ExecutionTime = 0.78 s  ClockTime = 1 s

Time = 6

smoothSolver:  Solving for Ux, Initial residual = 0.31779187, Final residual = 0.031205553, No Iterations 1
smoothSolver:  Solving for Uy, Initial residual = 0.87416987, Final residual = 0.016731791, No Iterations 2
smoothSolver:  Solving for Uz, Initial residual = 0.32988243, Final residual = 0.031888615, No Iterations 1
GAMG:  Solving for p, Initial residual = 0.032917932, Final residual = 0.00014965684, No Iterations 6
GAMG:  Solving for p, Initial residual = 0.00090115166, Final residual = 4.9382838e-06, No Iterations 4
GAMG:  Solving for p, Initial residual = 0.00021871616, Final residual = 1.2840467e-06, No Iterations 3
GAMG:  Solving for p, Initial residual = 6.5245929e-05, Final residual = 4.1402925e-07, No Iterations 3
GAMG:  Solving for p, Initial residual = 2.3205287e-05, Final residual = 1.1013628e-07, No Iterations 3
GAMG:  Solving for p, Initial residual = 8.0084881e-06, Final residual = 3.577358e-08, No Iterations 3
time step continuity errors : sum local = 0.004395137, global = 0.0002381607, cumulative = 0.0056874473
smoothSolver:  Solving for omega, Initial residual = 0.0046497315, Final residual = 0.00021506075, No Iterations 2
smoothSolver:  Solving for k, Initial residual = 0.05443997, Final residual = 0.003955376, No Iterations 2
ExecutionTime = 0.9 s  ClockTime = 1 s

Time = 7

smoothSolver:  Solving for Ux, Initial residual = 0.225531, Final residual = 0.020902331, No Iterations 1
smoothSolver:  Solving for Uy, Initial residual = 0.93002371, Final residual = 0.017894537, No Iterations 2
smoothSolver:  Solving for Uz, Initial residual = 0.23336211, Final residual = 0.021790904, No Iterations 1
GAMG:  Solving for p, Initial residual = 0.028931431, Final residual = 0.00028845446, No Iterations 6
GAMG:  Solving for p, Initial residual = 0.0017898062, Final residual = 1.5185005e-05, No Iterations 4
GAMG:  Solving for p, Initial residual = 0.00039018876, Final residual = 3.4891147e-06, No Iterations 3
GAMG:  Solving for p, Initial residual = 0.0001159815, Final residual = 9.03943e-07, No Iterations 3
GAMG:  Solving for p, Initial residual = 4.072222e-05, Final residual = 3.2647583e-07, No Iterations 3
GAMG:  Solving for p, Initial residual = 1.4939406e-05, Final residual = 9.4780884e-08, No Iterations 3
time step continuity errors : sum local = 0.0072762124, global = -0.00016625429, cumulative = 0.005521193
smoothSolver:  Solving for omega, Initial residual = 0.0056465739, Final residual = 0.00027343432, No Iterations 2
smoothSolver:  Solving for k, Initial residual = 0.041579755, Final residual = 0.0031988587, No Iterations 2
ExecutionTime = 1.04 s  ClockTime = 1 s

Time = 8

smoothSolver:  Solving for Ux, Initial residual = 0.29489375, Final residual = 0.0044038998, No Iterations 2
smoothSolver:  Solving for Uy, Initial residual = 0.68558112, Final residual = 0.013159332, No Iterations 2
smoothSolver:  Solving for Uz, Initial residual = 0.29259466, Final residual = 0.028897441, No Iterations 1
GAMG:  Solving for p, Initial residual = 0.055117448, Final residual = 0.00047495494, No Iterations 7
GAMG:  Solving for p, Initial residual = 0.00084595204, Final residual = 5.467273e-06, No Iterations 4
GAMG:  Solving for p, Initial residual = 0.00020920151, Final residual = 1.9231132e-06, No Iterations 3
GAMG:  Solving for p, Initial residual = 6.6816393e-05, Final residual = 5.4572047e-07, No Iterations 3
GAMG:  Solving for p, Initial residual = 2.361715e-05, Final residual = 1.9593319e-07, No Iterations 3
GAMG:  Solving for p, Initial residual = 8.8576691e-06, Final residual = 5.8420136e-08, No Iterations 3
time step continuity errors : sum local = 0.0094024767, global = -0.00098782849, cumulative = 0.0045333645
smoothSolver:  Solving for omega, Initial residual = 0.005632381, Final residual = 0.00026315765, No Iterations 2
smoothSolver:  Solving for k, Initial residual = 0.032318578, Final residual = 0.002392923, No Iterations 2
ExecutionTime = 1.17 s  ClockTime = 1 s

Time = 9

smoothSolver:  Solving for Ux, Initial residual = 0.39930006, Final residual = 0.0064947572, No Iterations 2
smoothSolver:  Solving for Uy, Initial residual = 0.4992866, Final residual = 0.0096666965, No Iterations 2
smoothSolver:  Solving for Uz, Initial residual = 0.39485862, Final residual = 0.0062846806, No Iterations 2
GAMG:  Solving for p, Initial residual = 0.058486552, Final residual = 0.00043600517, No Iterations 6
GAMG:  Solving for p, Initial residual = 0.00076348028, Final residual = 7.1618741e-06, No Iterations 4
GAMG:  Solving for p, Initial residual = 0.00018633428, Final residual = 1.3991723e-06, No Iterations 3
GAMG:  Solving for p, Initial residual = 5.7004242e-05, Final residual = 3.2293961e-07, No Iterations 3
GAMG:  Solving for p, Initial residual = 2.0630578e-05, Final residual = 1.0353769e-07, No Iterations 3
GAMG:  Solving for p, Initial residual = 7.361663e-06, Final residual = 3.2891902e-08, No Iterations 3
time step continuity errors : sum local = 0.0033842569, global = -0.00022066501, cumulative = 0.0043126995
smoothSolver:  Solving for omega, Initial residual = 0.0046304186, Final residual = 0.00021052818, No Iterations 2
smoothSolver:  Solving for k, Initial residual = 0.021817788, Final residual = 0.0016330129, No Iterations 2
ExecutionTime = 1.31 s  ClockTime = 1 s

Time = 10

smoothSolver:  Solving for Ux, Initial residual = 0.3354574, Final residual = 0.0055500942, No Iterations 2
smoothSolver:  Solving for Uy, Initial residual = 0.75598317, Final residual = 0.014637259, No Iterations 2
smoothSolver:  Solving for Uz, Initial residual = 0.33530644, Final residual = 0.0054297627, No Iterations 2
GAMG:  Solving for p, Initial residual = 0.032577277, Final residual = 0.00018502943, No Iterations 6
GAMG:  Solving for p, Initial residual = 0.0045051245, Final residual = 3.2737742e-05, No Iterations 4
GAMG:  Solving for p, Initial residual = 0.00074027191, Final residual = 6.0617251e-06, No Iterations 3
GAMG:  Solving for p, Initial residual = 0.00017826603, Final residual = 1.4286064e-06, No Iterations 3
GAMG:  Solving for p, Initial residual = 5.5580772e-05, Final residual = 4.3545738e-07, No Iterations 3
GAMG:  Solving for p, Initial residual = 1.7798129e-05, Final residual = 1.3814021e-07, No Iterations 3
time step continuity errors : sum local = 0.0023702914, global = 0.00014141965, cumulative = 0.0044541192
smoothSolver:  Solving for omega, Initial residual = 0.0043811487, Final residual = 0.00019288494, No Iterations 2
smoothSolver:  Solving for k, Initial residual = 0.019246332, Final residual = 0.0014935814, No Iterations 2
ExecutionTime = 1.44 s  ClockTime = 1 s

Time = 11

smoothSolver:  Solving for Ux, Initial residual = 0.26625487, Final residual = 0.0045795291, No Iterations 2
smoothSolver:  Solving for Uy, Initial residual = 0.64210331, Final residual = 0.012621733, No Iterations 2
smoothSolver:  Solving for Uz, Initial residual = 0.26615254, Final residual = 0.0044936686, No Iterations 2
GAMG:  Solving for p, Initial residual = 0.045357067, Final residual = 0.00033264921, No Iterations 7
GAMG:  Solving for p, Initial residual = 0.00094785514, Final residual = 5.5294295e-06, No Iterations 4
GAMG:  Solving for p, Initial residual = 0.00023896488, Final residual = 2.1852081e-06, No Iterations 3
GAMG:  Solving for p, Initial residual = 7.7720254e-05, Final residual = 6.367617e-07, No Iterations 3
GAMG:  Solving for p, Initial residual = 2.7849632e-05, Final residual = 2.3511722e-07, No Iterations 3
GAMG:  Solving for p, Initial residual = 1.0509479e-05, Final residual = 7.0123212e-08, No Iterations 3
time step continuity errors : sum local = 0.005993676, global = 0.00059165974, cumulative = 0.0050457789
smoothSolver:  Solving for omega, Initial residual = 0.0045286217, Final residual = 0.00020643562, No Iterations 2
smoothSolver:  Solving for k, Initial residual = 0.018014258, Final residual = 0.0014376214, No Iterations 2
ExecutionTime = 1.58 s  ClockTime = 2 s

Time = 12

smoothSolver:  Solving for Ux, Initial residual = 0.33949925, Final residual = 0.0055412468, No Iterations 2
smoothSolver:  Solving for Uy, Initial residual = 0.24384295, Final residual = 0.0051356867, No Iterations 2
smoothSolver:  Solving for Uz, Initial residual = 0.34369, Final residual = 0.0054523504, No Iterations 2
GAMG:  Solving for p, Initial residual = 0.15674396, Final residual = 0.0013875813, No Iterations 6
GAMG:  Solving for p, Initial residual = 0.00067167837, Final residual = 4.7181416e-06, No Iterations 4
GAMG:  Solving for p, Initial residual = 0.00012093608, Final residual = 7.5735068e-07, No Iterations 3
GAMG:  Solving for p, Initial residual = 3.2665893e-05, Final residual = 1.4962912e-07, No Iterations 3
GAMG:  Solving for p, Initial residual = 1.0532276e-05, Final residual = 4.5801676e-08, No Iterations 3
GAMG:  Solving for p, Initial residual = 3.7404582e-06, Final residual = 1.434769e-08, No Iterations 3
time step continuity errors : sum local = 0.0010235776, global = 2.1005328e-05, cumulative = 0.0050667843
smoothSolver:  Solving for omega, Initial residual = 0.0044700262, Final residual = 0.00020247203, No Iterations 2
smoothSolver:  Solving for k, Initial residual = 0.01455136, Final residual = 0.0011781937, No Iterations 2
ExecutionTime = 1.71 s  ClockTime = 2 s

Time = 13

smoothSolver:  Solving for Ux, Initial residual = 0.3317304, Final residual = 0.0055416776, No Iterations 2
smoothSolver:  Solving for Uy, Initial residual = 0.59906205, Final residual = 0.011853358, No Iterations 2
smoothSolver:  Solving for Uz, Initial residual = 0.33248527, Final residual = 0.0054199437, No Iterations 2
GAMG:  Solving for p, Initial residual = 0.04499056, Final residual = 0.00036164852, No Iterations 4
GAMG:  Solving for p, Initial residual = 0.0035370266, Final residual = 2.7720188e-05, No Iterations 4
GAMG:  Solving for p, Initial residual = 0.00039229734, Final residual = 3.3603884e-06, No Iterations 3
GAMG:  Solving for p, Initial residual = 6.2175079e-05, Final residual = 4.1843953e-07, No Iterations 3
GAMG:  Solving for p, Initial residual = 1.3941521e-05, Final residual = 8.0415975e-08, No Iterations 3
GAMG:  Solving for p, Initial residual = 3.498243e-06, Final residual = 1.8418873e-08, No Iterations 3
time step continuity errors : sum local = 0.00019976332, global = -1.654741e-05, cumulative = 0.0050502368
smoothSolver:  Solving for omega, Initial residual = 0.004100614, Final residual = 0.00019215902, No Iterations 2
smoothSolver:  Solving for k, Initial residual = 0.011196957, Final residual = 0.00091105106, No Iterations 2
ExecutionTime = 1.83 s  ClockTime = 2 s

Time = 14

smoothSolver:  Solving for Ux, Initial residual = 0.25214705, Final residual = 0.0044382836, No Iterations 2
smoothSolver:  Solving for Uy, Initial residual = 0.67977134, Final residual = 0.013570244, No Iterations 2
smoothSolver:  Solving for Uz, Initial residual = 0.24503601, Final residual = 0.0042743536, No Iterations 2
GAMG:  Solving for p, Initial residual = 0.049220971, Final residual = 0.00041876123, No Iterations 6
GAMG:  Solving for p, Initial residual = 0.0012964147, Final residual = 1.1561158e-05, No Iterations 4
GAMG:  Solving for p, Initial residual = 0.00030103857, Final residual = 2.7991623e-06, No Iterations 3
GAMG:  Solving for p, Initial residual = 9.4866138e-05, Final residual = 7.6832104e-07, No Iterations 3
GAMG:  Solving for p, Initial residual = 3.3858566e-05, Final residual = 2.7796281e-07, No Iterations 3
GAMG:  Solving for p, Initial residual = 1.264924e-05, Final residual = 8.2449495e-08, No Iterations 3
time step continuity errors : sum local = 0.0034711469, global = -0.00028102468, cumulative = 0.0047692122
smoothSolver:  Solving for omega, Initial residual = 0.0038514738, Final residual = 0.00017964157, No Iterations 2
smoothSolver:  Solving for k, Initial residual = 0.010761166, Final residual = 0.00087430426, No Iterations 2
ExecutionTime = 1.96 s  ClockTime = 2 s

Time = 15

smoothSolver:  Solving for Ux, Initial residual = 0.26913124, Final residual = 0.0047249263, No Iterations 2
smoothSolver:  Solving for Uy, Initial residual = 0.12559394, Final residual = 0.0027196526, No Iterations 2
smoothSolver:  Solving for Uz, Initial residual = 0.2623679, Final residual = 0.0044598187, No Iterations 2
GAMG:  Solving for p, Initial residual = 0.25683845, Final residual = 0.0021492399, No Iterations 6
GAMG:  Solving for p, Initial residual = 0.00080857858, Final residual = 6.5233505e-06, No Iterations 4
GAMG:  Solving for p, Initial residual = 0.00017141562, Final residual = 1.4680922e-06, No Iterations 3
GAMG:  Solving for p, Initial residual = 4.9895366e-05, Final residual = 3.7244904e-07, No Iterations 3
GAMG:  Solving for p, Initial residual = 1.7627166e-05, Final residual = 1.3078506e-07, No Iterations 3
GAMG:  Solving for p, Initial residual = 6.2203146e-06, Final residual = 3.7801631e-08, No Iterations 3
time step continuity errors : sum local = 0.0017661058, global = -0.00023197712, cumulative = 0.004537235
smoothSolver:  Solving for omega, Initial residual = 0.0035082884, Final residual = 0.00017028396, No Iterations 2
smoothSolver:  Solving for k, Initial residual = 0.010167826, Final residual = 0.00083537831, No Iterations 2
ExecutionTime = 2.08 s  ClockTime = 2 s

Time = 16

smoothSolver:  Solving for Ux, Initial residual = 0.34179918, Final residual = 0.0064446963, No Iterations 2
smoothSolver:  Solving for Uy, Initial residual = 0.39157544, Final residual = 0.0079003882, No Iterations 2
smoothSolver:  Solving for Uz, Initial residual = 0.33477703, Final residual = 0.0061469415, No Iterations 2
GAMG:  Solving for p, Initial residual = 0.0592666, Final residual = 0.00034456712, No Iterations 4
GAMG:  Solving for p, Initial residual = 0.0013909266, Final residual = 8.2337738e-06, No Iterations 4
GAMG:  Solving for p, Initial residual = 0.00019836772, Final residual = 1.8567943e-06, No Iterations 2
GAMG:  Solving for p, Initial residual = 4.2656066e-05, Final residual = 2.3383733e-07, No Iterations 3
GAMG:  Solving for p, Initial residual = 1.3577624e-05, Final residual = 8.5001066e-08, No Iterations 2
GAMG:  Solving for p, Initial residual = 4.3024925e-06, Final residual = 3.7497846e-08, No Iterations 2
time step continuity errors : sum local = 0.00062232199, global = -1.4005942e-05, cumulative = 0.0045232291
smoothSolver:  Solving for omega, Initial residual = 0.0032074465, Final residual = 0.00016260655, No Iterations 2
smoothSolver:  Solving for k, Initial residual = 0.0091739402, Final residual = 0.00076339711, No Iterations 2
ExecutionTime = 2.19 s  ClockTime = 2 s

Time = 17

smoothSolver:  Solving for Ux, Initial residual = 0.30753135, Final residual = 0.006325852, No Iterations 2
smoothSolver:  Solving for Uy, Initial residual = 0.56868043, Final residual = 0.011638124, No Iterations 2
smoothSolver:  Solving for Uz, Initial residual = 0.29527355, Final residual = 0.0059693806, No Iterations 2
GAMG:  Solving for p, Initial residual = 0.054841625, Final residual = 0.00028984085, No Iterations 6
GAMG:  Solving for p, Initial residual = 0.0017641122, Final residual = 1.3506616e-05, No Iterations 4
GAMG:  Solving for p, Initial residual = 0.00036073176, Final residual = 3.4430976e-06, No Iterations 3
GAMG:  Solving for p, Initial residual = 0.00010849633, Final residual = 9.4017192e-07, No Iterations 3
GAMG:  Solving for p, Initial residual = 3.7599184e-05, Final residual = 3.332703e-07, No Iterations 3
GAMG:  Solving for p, Initial residual = 1.3852727e-05, Final residual = 9.6262166e-08, No Iterations 3
time step continuity errors : sum local = 0.0017531705, global = 0.00010168073, cumulative = 0.0046249098
smoothSolver:  Solving for omega, Initial residual = 0.003038345, Final residual = 0.00015774726, No Iterations 2
smoothSolver:  Solving for k, Initial residual = 0.0084354115, Final residual = 0.00071923186, No Iterations 2
ExecutionTime = 2.31 s  ClockTime = 2 s

Time = 18

smoothSolver:  Solving for Ux, Initial residual = 0.26338295, Final residual = 0.0052631837, No Iterations 2
smoothSolver:  Solving for Uy, Initial residual = 0.23030901, Final residual = 0.0050021485, No Iterations 2
smoothSolver:  Solving for Uz, Initial residual = 0.25722852, Final residual = 0.0049902727, No Iterations 2
GAMG:  Solving for p, Initial residual = 0.12961163, Final residual = 0.00084184097, No Iterations 6
GAMG:  Solving for p, Initial residual = 0.00097662821, Final residual = 7.969523e-06, No Iterations 4
GAMG:  Solving for p, Initial residual = 0.00020500706, Final residual = 1.7794331e-06, No Iterations 3
GAMG:  Solving for p, Initial residual = 6.1161053e-05, Final residual = 4.6466566e-07, No Iterations 3
GAMG:  Solving for p, Initial residual = 2.1716266e-05, Final residual = 1.6479982e-07, No Iterations 3
GAMG:  Solving for p, Initial residual = 7.8254473e-06, Final residual = 4.7983333e-08, No Iterations 3
time step continuity errors : sum local = 0.00134672, global = 0.00014779992, cumulative = 0.0047727098
smoothSolver:  Solving for omega, Initial residual = 0.0029401673, Final residual = 0.00015727441, No Iterations 2
smoothSolver:  Solving for k, Initial residual = 0.0082240038, Final residual = 0.00071324642, No Iterations 2
ExecutionTime = 2.43 s  ClockTime = 2 s

Time = 19

smoothSolver:  Solving for Ux, Initial residual = 0.27103807, Final residual = 0.0051062851, No Iterations 2
smoothSolver:  Solving for Uy, Initial residual = 0.30188996, Final residual = 0.0062898969, No Iterations 2
smoothSolver:  Solving for Uz, Initial residual = 0.26742064, Final residual = 0.0050129082, No Iterations 2
GAMG:  Solving for p, Initial residual = 0.097533395, Final residual = 0.00038406928, No Iterations 5
GAMG:  Solving for p, Initial residual = 0.0010531045, Final residual = 6.5182889e-06, No Iterations 4
GAMG:  Solving for p, Initial residual = 0.00014174756, Final residual = 7.2964439e-07, No Iterations 3
GAMG:  Solving for p, Initial residual = 2.9750385e-05, Final residual = 2.6503357e-07, No Iterations 2
GAMG:  Solving for p, Initial residual = 9.3886021e-06, Final residual = 3.4297554e-08, No Iterations 3
GAMG:  Solving for p, Initial residual = 2.9680834e-06, Final residual = 2.1337189e-08, No Iterations 2
time step continuity errors : sum local = 0.00032269528, global = 0.00010179776, cumulative = 0.0048745075
smoothSolver:  Solving for omega, Initial residual = 0.0028110854, Final residual = 0.00015362028, No Iterations 2
smoothSolver:  Solving for k, Initial residual = 0.0077664721, Final residual = 0.00068234373, No Iterations 2
ExecutionTime = 2.56 s  ClockTime = 3 s

Time = 20

smoothSolver:  Solving for Ux, Initial residual = 0.24225547, Final residual = 0.0047862975, No Iterations 2
smoothSolver:  Solving for Uy, Initial residual = 0.54419792, Final residual = 0.011430748, No Iterations 2
smoothSolver:  Solving for Uz, Initial residual = 0.23139669, Final residual = 0.0046005638, No Iterations 2
GAMG:  Solving for p, Initial residual = 0.066329157, Final residual = 0.00043479107, No Iterations 5
GAMG:  Solving for p, Initial residual = 0.0033610012, Final residual = 2.4431126e-05, No Iterations 4
GAMG:  Solving for p, Initial residual = 0.00055774122, Final residual = 4.4915717e-06, No Iterations 3
GAMG:  Solving for p, Initial residual = 0.00014157306, Final residual = 9.8898453e-07, No Iterations 3
GAMG:  Solving for p, Initial residual = 4.5549122e-05, Final residual = 3.4770167e-07, No Iterations 3
GAMG:  Solving for p, Initial residual = 1.5846612e-05, Final residual = 9.7207725e-08, No Iterations 3
time step continuity errors : sum local = 0.00060322916, global = -1.9525625e-05, cumulative = 0.0048549819
smoothSolver:  Solving for omega, Initial residual = 0.0026996576, Final residual = 0.00014863648, No Iterations 2
smoothSolver:  Solving for k, Initial residual = 0.0074202687, Final residual = 0.00065773531, No Iterations 2
ExecutionTime = 2.68 s  ClockTime = 3 s

Time = 21

smoothSolver:  Solving for Ux, Initial residual = 0.21539127, Final residual = 0.0043365934, No Iterations 2
smoothSolver:  Solving for Uy, Initial residual = 0.29102219, Final residual = 0.0063444095, No Iterations 2
smoothSolver:  Solving for Uz, Initial residual = 0.2039517, Final residual = 0.0039823181, No Iterations 2
GAMG:  Solving for p, Initial residual = 0.10725454, Final residual = 0.00049946678, No Iterations 6
GAMG:  Solving for p, Initial residual = 0.0012627021, Final residual = 8.8445259e-06, No Iterations 4
GAMG:  Solving for p, Initial residual = 0.00025111789, Final residual = 2.0961791e-06, No Iterations 3
GAMG:  Solving for p, Initial residual = 7.2696466e-05, Final residual = 5.4455507e-07, No Iterations 3
GAMG:  Solving for p, Initial residual = 2.5138084e-05, Final residual = 1.8860957e-07, No Iterations 3
GAMG:  Solving for p, Initial residual = 9.0431467e-06, Final residual = 5.3798481e-08, No Iterations 3
time step continuity errors : sum local = 0.00085189117, global = -8.4198261e-05, cumulative = 0.0047707836
smoothSolver:  Solving for omega, Initial residual = 0.0026096022, Final residual = 0.0001434007, No Iterations 2
smoothSolver:  Solving for k, Initial residual = 0.0073426202, Final residual = 0.00064667493, No Iterations 2
ExecutionTime = 2.8 s  ClockTime = 3 s

Time = 22

smoothSolver:  Solving for Ux, Initial residual = 0.27299243, Final residual = 0.0057289681, No Iterations 2
smoothSolver:  Solving for Uy, Initial residual = 0.1259558, Final residual = 0.0028605091, No Iterations 2
smoothSolver:  Solving for Uz, Initial residual = 0.25834157, Final residual = 0.0051766668, No Iterations 2
GAMG:  Solving for p, Initial residual = 0.18220703, Final residual = 0.00087028639, No Iterations 5
GAMG:  Solving for p, Initial residual = 0.0011079187, Final residual = 7.6399676e-06, No Iterations 4
GAMG:  Solving for p, Initial residual = 0.00014570618, Final residual = 1.0543919e-06, No Iterations 3
GAMG:  Solving for p, Initial residual = 3.0621037e-05, Final residual = 1.5737541e-07, No Iterations 3
GAMG:  Solving for p, Initial residual = 8.7057331e-06, Final residual = 6.8344027e-08, No Iterations 2
GAMG:  Solving for p, Initial residual = 2.8328039e-06, Final residual = 2.8006271e-08, No Iterations 2
time step continuity errors : sum local = 0.00032227113, global = -4.3750967e-05, cumulative = 0.0047270327
smoothSolver:  Solving for omega, Initial residual = 0.0025201688, Final residual = 0.00013977336, No Iterations 2
smoothSolver:  Solving for k, Initial residual = 0.0071302515, Final residual = 0.0006274801, No Iterations 2
ExecutionTime = 2.92 s  ClockTime = 3 s

Time = 23

smoothSolver:  Solving for Ux, Initial residual = 0.28956783, Final residual = 0.0064052131, No Iterations 2
smoothSolver:  Solving for Uy, Initial residual = 0.27844359, Final residual = 0.0059612054, No Iterations 2
smoothSolver:  Solving for Uz, Initial residual = 0.27074764, Final residual = 0.0057969204, No Iterations 2
GAMG:  Solving for p, Initial residual = 0.081609973, Final residual = 0.00078855123, No Iterations 4
GAMG:  Solving for p, Initial residual = 0.019257584, Final residual = 0.00011804707, No Iterations 4
GAMG:  Solving for p, Initial residual = 0.0017739624, Final residual = 1.1848102e-05, No Iterations 3
GAMG:  Solving for p, Initial residual = 0.00025197191, Final residual = 1.4434531e-06, No Iterations 3
GAMG:  Solving for p, Initial residual = 5.075004e-05, Final residual = 2.3374576e-07, No Iterations 3
GAMG:  Solving for p, Initial residual = 1.1822216e-05, Final residual = 5.2779282e-08, No Iterations 3
time step continuity errors : sum local = 4.057877e-05, global = 4.925888e-06, cumulative = 0.0047319585
smoothSolver:  Solving for omega, Initial residual = 0.0024319924, Final residual = 0.00013736845, No Iterations 2
smoothSolver:  Solving for k, Initial residual = 0.0068038486, Final residual = 0.00060614171, No Iterations 2
ExecutionTime = 3.04 s  ClockTime = 3 s

Time = 24

smoothSolver:  Solving for Ux, Initial residual = 0.23166543, Final residual = 0.0051726794, No Iterations 2
smoothSolver:  Solving for Uy, Initial residual = 0.28499387, Final residual = 0.006378596, No Iterations 2
smoothSolver:  Solving for Uz, Initial residual = 0.21648448, Final residual = 0.0047572645, No Iterations 2
GAMG:  Solving for p, Initial residual = 0.10477283, Final residual = 0.00084313124, No Iterations 5
GAMG:  Solving for p, Initial residual = 0.0018589366, Final residual = 1.3500385e-05, No Iterations 4
GAMG:  Solving for p, Initial residual = 0.00034418329, Final residual = 2.8655745e-06, No Iterations 3
GAMG:  Solving for p, Initial residual = 9.3965136e-05, Final residual = 7.2213188e-07, No Iterations 3
GAMG:  Solving for p, Initial residual = 3.2067931e-05, Final residual = 2.4470396e-07, No Iterations 3
GAMG:  Solving for p, Initial residual = 1.1342832e-05, Final residual = 6.9742725e-08, No Iterations 3
time step continuity errors : sum local = 0.0005749298, global = 4.7421916e-05, cumulative = 0.0047793805
smoothSolver:  Solving for omega, Initial residual = 0.002363599, Final residual = 0.00013736041, No Iterations 2
smoothSolver:  Solving for k, Initial residual = 0.0065560464, Final residual = 0.00059740389, No Iterations 2
ExecutionTime = 3.16 s  ClockTime = 3 s

Time = 25

smoothSolver:  Solving for Ux, Initial residual = 0.20479011, Final residual = 0.0043045382, No Iterations 2
smoothSolver:  Solving for Uy, Initial residual = 0.072472021, Final residual = 0.0017954358, No Iterations 2
smoothSolver:  Solving for Uz, Initial residual = 0.19810212, Final residual = 0.0040770943, No Iterations 2
GAMG:  Solving for p, Initial residual = 0.54741137, Final residual = 0.0026676466, No Iterations 5
GAMG:  Solving for p, Initial residual = 0.0013543251, Final residual = 9.1446441e-06, No Iterations 4
GAMG:  Solving for p, Initial residual = 0.0002085558, Final residual = 1.3650907e-06, No Iterations 3
GAMG:  Solving for p, Initial residual = 5.1918641e-05, Final residual = 2.7345957e-07, No Iterations 3
GAMG:  Solving for p, Initial residual = 1.7007681e-05, Final residual = 8.9162081e-08, No Iterations 3
GAMG:  Solving for p, Initial residual = 5.845507e-06, Final residual = 2.5351994e-08, No Iterations 3
time step continuity errors : sum local = 0.00019937719, global = 2.7594068e-05, cumulative = 0.0048069745
smoothSolver:  Solving for omega, Initial residual = 0.0023069554, Final residual = 0.00013657544, No Iterations 2
smoothSolver:  Solving for k, Initial residual = 0.006387992, Final residual = 0.00058900372, No Iterations 2
ExecutionTime = 3.31 s  ClockTime = 3 s

Time = 26

smoothSolver:  Solving for Ux, Initial residual = 0.21419978, Final residual = 0.0047020964, No Iterations 2
smoothSolver:  Solving for Uy, Initial residual = 0.24539513, Final residual = 0.0052735748, No Iterations 2
smoothSolver:  Solving for Uz, Initial residual = 0.20538494, Final residual = 0.0044426885, No Iterations 2
GAMG:  Solving for p, Initial residual = 0.11202329, Final residual = 0.00068349161, No Iterations 4
GAMG:  Solving for p, Initial residual = 0.0039496, Final residual = 1.9362477e-05, No Iterations 4
GAMG:  Solving for p, Initial residual = 0.00038285527, Final residual = 2.5573397e-06, No Iterations 3
GAMG:  Solving for p, Initial residual = 5.5983929e-05, Final residual = 3.6718081e-07, No Iterations 3
GAMG:  Solving for p, Initial residual = 1.2414289e-05, Final residual = 5.4069728e-08, No Iterations 3
GAMG:  Solving for p, Initial residual = 2.9393415e-06, Final residual = 1.1053097e-08, No Iterations 3
time step continuity errors : sum local = 2.4827777e-05, global = -1.3714078e-06, cumulative = 0.0048056031
smoothSolver:  Solving for omega, Initial residual = 0.0022483202, Final residual = 0.00013451368, No Iterations 2
smoothSolver:  Solving for k, Initial residual = 0.0062262349, Final residual = 0.00057533053, No Iterations 2
ExecutionTime = 3.44 s  ClockTime = 3 s

Time = 27

smoothSolver:  Solving for Ux, Initial residual = 0.20828951, Final residual = 0.0048061202, No Iterations 2
smoothSolver:  Solving for Uy, Initial residual = 0.23065, Final residual = 0.0051568503, No Iterations 2
smoothSolver:  Solving for Uz, Initial residual = 0.19159561, Final residual = 0.0043131398, No Iterations 2
GAMG:  Solving for p, Initial residual = 0.11091501, Final residual = 0.0004230651, No Iterations 5
GAMG:  Solving for p, Initial residual = 0.002474222, Final residual = 1.1001927e-05, No Iterations 4
GAMG:  Solving for p, Initial residual = 0.00039323373, Final residual = 2.7242459e-06, No Iterations 3
GAMG:  Solving for p, Initial residual = 9.3996581e-05, Final residual = 6.6007655e-07, No Iterations 3
GAMG:  Solving for p, Initial residual = 3.0306689e-05, Final residual = 1.9857763e-07, No Iterations 3
GAMG:  Solving for p, Initial residual = 9.8576341e-06, Final residual = 5.2645059e-08, No Iterations 3
time step continuity errors : sum local = 0.00020708033, global = -2.5038503e-05, cumulative = 0.0047805646
smoothSolver:  Solving for omega, Initial residual = 0.0022005348, Final residual = 0.00013248225, No Iterations 2
smoothSolver:  Solving for k, Initial residual = 0.0061600336, Final residual = 0.00056797196, No Iterations 2
ExecutionTime = 3.57 s  ClockTime = 4 s

Time = 28

smoothSolver:  Solving for Ux, Initial residual = 0.20612724, Final residual = 0.0049518506, No Iterations 2
smoothSolver:  Solving for Uy, Initial residual = 0.06793625, Final residual = 0.0017247357, No Iterations 2
smoothSolver:  Solving for Uz, Initial residual = 0.18965826, Final residual = 0.0043550156, No Iterations 2
GAMG:  Solving for p, Initial residual = 0.30340652, Final residual = 0.0028613208, No Iterations 4
GAMG:  Solving for p, Initial residual = 0.0018362778, Final residual = 9.8221663e-06, No Iterations 4
GAMG:  Solving for p, Initial residual = 0.0002807922, Final residual = 1.6181299e-06, No Iterations 3
GAMG:  Solving for p, Initial residual = 6.187257e-05, Final residual = 3.7839451e-07, No Iterations 3
GAMG:  Solving for p, Initial residual = 1.9671341e-05, Final residual = 1.0449027e-07, No Iterations 3
GAMG:  Solving for p, Initial residual = 6.1337431e-06, Final residual = 2.8665867e-08, No Iterations 3
time step continuity errors : sum local = 0.00014212739, global = -1.8065683e-05, cumulative = 0.0047624989
smoothSolver:  Solving for omega, Initial residual = 0.0021532102, Final residual = 0.00013038179, No Iterations 2
smoothSolver:  Solving for k, Initial residual = 0.006049062, Final residual = 0.00055570999, No Iterations 2
ExecutionTime = 3.69 s  ClockTime = 4 s

Time = 29

smoothSolver:  Solving for Ux, Initial residual = 0.21606824, Final residual = 0.0052745623, No Iterations 2
smoothSolver:  Solving for Uy, Initial residual = 0.098594869, Final residual = 0.0022956082, No Iterations 2
smoothSolver:  Solving for Uz, Initial residual = 0.20421497, Final residual = 0.0047806138, No Iterations 2
GAMG:  Solving for p, Initial residual = 0.15666643, Final residual = 0.000753311, No Iterations 4
GAMG:  Solving for p, Initial residual = 0.0028459111, Final residual = 1.6174704e-05, No Iterations 4
GAMG:  Solving for p, Initial residual = 0.00029923887, Final residual = 1.8076039e-06, No Iterations 3
GAMG:  Solving for p, Initial residual = 5.2250627e-05, Final residual = 2.8318019e-07, No Iterations 3
GAMG:  Solving for p, Initial residual = 1.24159e-05, Final residual = 1.1136136e-07, No Iterations 2
GAMG:  Solving for p, Initial residual = 3.4482871e-06, Final residual = 1.4084669e-08, No Iterations 3
time step continuity errors : sum local = 3.3285282e-05, global = -4.681559e-06, cumulative = 0.0047578174
smoothSolver:  Solving for omega, Initial residual = 0.0020986674, Final residual = 0.0001287016, No Iterations 2
smoothSolver:  Solving for k, Initial residual = 0.0058877746, Final residual = 0.00054175012, No Iterations 2
ExecutionTime = 3.8 s  ClockTime = 4 s

Time = 30

smoothSolver:  Solving for Ux, Initial residual = 0.19944589, Final residual = 0.0049546094, No Iterations 2
smoothSolver:  Solving for Uy, Initial residual = 0.12791773, Final residual = 0.0029750955, No Iterations 2
smoothSolver:  Solving for Uz, Initial residual = 0.19098778, Final residual = 0.0046667089, No Iterations 2
GAMG:  Solving for p, Initial residual = 0.12266984, Final residual = 0.0011940677, No Iterations 4
GAMG:  Solving for p, Initial residual = 0.0049453611, Final residual = 2.5243493e-05, No Iterations 4
GAMG:  Solving for p, Initial residual = 0.00064553586, Final residual = 3.5608633e-06, No Iterations 3
GAMG:  Solving for p, Initial residual = 0.00013115824, Final residual = 7.2899428e-07, No Iterations 3
GAMG:  Solving for p, Initial residual = 3.8004414e-05, Final residual = 1.9170618e-07, No Iterations 3
GAMG:  Solving for p, Initial residual = 1.1780369e-05, Final residual = 4.9363547e-08, No Iterations 3
time step continuity errors : sum local = 7.8819782e-05, global = 6.5103318e-06, cumulative = 0.0047643277
smoothSolver:  Solving for omega, Initial residual = 0.0020456989, Final residual = 0.00012773818, No Iterations 2
smoothSolver:  Solving for k, Initial residual = 0.0057421577, Final residual = 0.00053164179, No Iterations 2
ExecutionTime = 3.92 s  ClockTime = 4 s

Time = 31

smoothSolver:  Solving for Ux, Initial residual = 0.16978987, Final residual = 0.0041209746, No Iterations 2
smoothSolver:  Solving for Uy, Initial residual = 0.076850893, Final residual = 0.0018948981, No Iterations 2
smoothSolver:  Solving for Uz, Initial residual = 0.16200962, Final residual = 0.0039167902, No Iterations 2
GAMG:  Solving for p, Initial residual = 0.21721318, Final residual = 0.0021714775, No Iterations 4
GAMG:  Solving for p, Initial residual = 0.0025293279, Final residual = 1.6258788e-05, No Iterations 4
GAMG:  Solving for p, Initial residual = 0.00040061767, Final residual = 2.0755353e-06, No Iterations 3
GAMG:  Solving for p, Initial residual = 9.1456292e-05, Final residual = 4.5676226e-07, No Iterations 3
GAMG:  Solving for p, Initial residual = 3.0044117e-05, Final residual = 2.9337254e-07, No Iterations 2
GAMG:  Solving for p, Initial residual = 9.4395747e-06, Final residual = 4.1155768e-08, No Iterations 3
time step continuity errors : sum local = 0.00011948063, global = -3.1661237e-07, cumulative = 0.0047640111
smoothSolver:  Solving for omega, Initial residual = 0.0020024733, Final residual = 0.00012679808, No Iterations 2
smoothSolver:  Solving for k, Initial residual = 0.0056512639, Final residual = 0.00052686848, No Iterations 2
ExecutionTime = 4.04 s  ClockTime = 4 s

Time = 32

smoothSolver:  Solving for Ux, Initial residual = 0.15407908, Final residual = 0.0035378826, No Iterations 2
smoothSolver:  Solving for Uy, Initial residual = 0.065376382, Final residual = 0.0013901815, No Iterations 2
smoothSolver:  Solving for Uz, Initial residual = 0.14678475, Final residual = 0.0033281759, No Iterations 2
GAMG:  Solving for p, Initial residual = 0.25703579, Final residual = 0.0021111112, No Iterations 4
GAMG:  Solving for p, Initial residual = 0.0028462836, Final residual = 1.928788e-05, No Iterations 4
GAMG:  Solving for p, Initial residual = 0.0003434269, Final residual = 2.2118201e-06, No Iterations 3
GAMG:  Solving for p, Initial residual = 6.4525942e-05, Final residual = 3.6070459e-07, No Iterations 3
GAMG:  Solving for p, Initial residual = 1.8069658e-05, Final residual = 1.3037029e-07, No Iterations 2
GAMG:  Solving for p, Initial residual = 5.1535105e-06, Final residual = 1.8643243e-08, No Iterations 3
time step continuity errors : sum local = 3.5742183e-05, global = 5.0354218e-07, cumulative = 0.0047645146
smoothSolver:  Solving for omega, Initial residual = 0.0019656507, Final residual = 0.00012548578, No Iterations 2
smoothSolver:  Solving for k, Initial residual = 0.005589166, Final residual = 0.00052323145, No Iterations 2
ExecutionTime = 4.16 s  ClockTime = 4 s

Time = 33

smoothSolver:  Solving for Ux, Initial residual = 0.1494594, Final residual = 0.0036168873, No Iterations 2
smoothSolver:  Solving for Uy, Initial residual = 0.091216741, Final residual = 0.0020464558, No Iterations 2
smoothSolver:  Solving for Uz, Initial residual = 0.14065605, Final residual = 0.0033131948, No Iterations 2
GAMG:  Solving for p, Initial residual = 0.15017378, Final residual = 0.0013211072, No Iterations 4
GAMG:  Solving for p, Initial residual = 0.010902433, Final residual = 5.0534377e-05, No Iterations 4
GAMG:  Solving for p, Initial residual = 0.00099643158, Final residual = 6.2328004e-06, No Iterations 3
GAMG:  Solving for p, Initial residual = 0.0001381607, Final residual = 7.3767957e-07, No Iterations 3
GAMG:  Solving for p, Initial residual = 2.8513994e-05, Final residual = 2.6762254e-07, No Iterations 2
GAMG:  Solving for p, Initial residual = 6.5717867e-06, Final residual = 2.7230462e-08, No Iterations 3
time step continuity errors : sum local = 1.3689093e-05, global = -1.675413e-06, cumulative = 0.0047628392
smoothSolver:  Solving for omega, Initial residual = 0.0019306648, Final residual = 0.00012388016, No Iterations 2
smoothSolver:  Solving for k, Initial residual = 0.0055197927, Final residual = 0.00051773829, No Iterations 2
ExecutionTime = 4.27 s  ClockTime = 4 s

Time = 34

smoothSolver:  Solving for Ux, Initial residual = 0.14338465, Final residual = 0.0037038485, No Iterations 2
smoothSolver:  Solving for Uy, Initial residual = 0.058483537, Final residual = 0.0013962771, No Iterations 2
smoothSolver:  Solving for Uz, Initial residual = 0.13466494, Final residual = 0.0034174738, No Iterations 2
GAMG:  Solving for p, Initial residual = 0.19869307, Final residual = 0.0019123661, No Iterations 4
GAMG:  Solving for p, Initial residual = 0.0033016972, Final residual = 1.6692695e-05, No Iterations 4
GAMG:  Solving for p, Initial residual = 0.00049362655, Final residual = 2.0858067e-06, No Iterations 3
GAMG:  Solving for p, Initial residual = 9.296762e-05, Final residual = 4.7692122e-07, No Iterations 3
GAMG:  Solving for p, Initial residual = 2.8619486e-05, Final residual = 2.4078934e-07, No Iterations 2
GAMG:  Solving for p, Initial residual = 7.8869325e-06, Final residual = 4.7732358e-08, No Iterations 3
time step continuity errors : sum local = 7.6758757e-05, global = 1.3332099e-06, cumulative = 0.0047641724
smoothSolver:  Solving for omega, Initial residual = 0.0018960273, Final residual = 0.00012200156, No Iterations 2
smoothSolver:  Solving for k, Initial residual = 0.0054360562, Final residual = 0.00051018367, No Iterations 2
ExecutionTime = 4.38 s  ClockTime = 4 s

Time = 35

smoothSolver:  Solving for Ux, Initial residual = 0.13779836, Final residual = 0.0037327408, No Iterations 2
smoothSolver:  Solving for Uy, Initial residual = 0.031929793, Final residual = 0.00080522636, No Iterations 2
smoothSolver:  Solving for Uz, Initial residual = 0.13048721, Final residual = 0.003497461, No Iterations 2
GAMG:  Solving for p, Initial residual = 0.43352087, Final residual = 0.0041633061, No Iterations 4
GAMG:  Solving for p, Initial residual = 0.0031426279, Final residual = 1.0280923e-05, No Iterations 5
GAMG:  Solving for p, Initial residual = 0.00037942484, Final residual = 2.0395383e-06, No Iterations 3
GAMG:  Solving for p, Initial residual = 6.3714655e-05, Final residual = 3.0827342e-07, No Iterations 3
GAMG:  Solving for p, Initial residual = 1.6408693e-05, Final residual = 1.0873352e-07, No Iterations 2
GAMG:  Solving for p, Initial residual = 4.2259426e-06, Final residual = 1.718085e-08, No Iterations 3
time step continuity errors : sum local = 2.3748274e-05, global = -5.9522983e-07, cumulative = 0.0047635772
smoothSolver:  Solving for omega, Initial residual = 0.0018612353, Final residual = 0.00011992524, No Iterations 2
smoothSolver:  Solving for k, Initial residual = 0.0053473727, Final residual = 0.00050161864, No Iterations 2
ExecutionTime = 4.51 s  ClockTime = 5 s

Time = 36

smoothSolver:  Solving for Ux, Initial residual = 0.13450461, Final residual = 0.0036512065, No Iterations 2
smoothSolver:  Solving for Uy, Initial residual = 0.046117846, Final residual = 0.001160659, No Iterations 2
smoothSolver:  Solving for Uz, Initial residual = 0.12860781, Final residual = 0.0034168183, No Iterations 2
GAMG:  Solving for p, Initial residual = 0.18278777, Final residual = 0.00085535325, No Iterations 4
GAMG:  Solving for p, Initial residual = 0.008237481, Final residual = 8.1614613e-05, No Iterations 3
GAMG:  Solving for p, Initial residual = 0.00075981526, Final residual = 7.4476047e-06, No Iterations 3
GAMG:  Solving for p, Initial residual = 0.00011258474, Final residual = 9.1214319e-07, No Iterations 3
GAMG:  Solving for p, Initial residual = 2.3199572e-05, Final residual = 1.1026008e-07, No Iterations 3
GAMG:  Solving for p, Initial residual = 5.3038733e-06, Final residual = 2.1281441e-08, No Iterations 3
time step continuity errors : sum local = 8.2095643e-06, global = 3.9614863e-07, cumulative = 0.0047639734
smoothSolver:  Solving for omega, Initial residual = 0.0018287225, Final residual = 0.00011790373, No Iterations 2
smoothSolver:  Solving for k, Initial residual = 0.005285129, Final residual = 0.00049538208, No Iterations 2
ExecutionTime = 4.62 s  ClockTime = 5 s

Time = 37

smoothSolver:  Solving for Ux, Initial residual = 0.122942, Final residual = 0.0032015596, No Iterations 2
smoothSolver:  Solving for Uy, Initial residual = 0.040853185, Final residual = 0.001056538, No Iterations 2
smoothSolver:  Solving for Uz, Initial residual = 0.1182337, Final residual = 0.0030166114, No Iterations 2
GAMG:  Solving for p, Initial residual = 0.19450276, Final residual = 0.0016878845, No Iterations 4
GAMG:  Solving for p, Initial residual = 0.004730993, Final residual = 2.2086585e-05, No Iterations 4
GAMG:  Solving for p, Initial residual = 0.00051356295, Final residual = 3.0051594e-06, No Iterations 3
GAMG:  Solving for p, Initial residual = 8.1328446e-05, Final residual = 3.8263484e-07, No Iterations 3
GAMG:  Solving for p, Initial residual = 1.9043745e-05, Final residual = 1.7559851e-07, No Iterations 2
GAMG:  Solving for p, Initial residual = 4.7998026e-06, Final residual = 1.7382717e-08, No Iterations 3
time step continuity errors : sum local = 1.3885376e-05, global = 5.4870302e-07, cumulative = 0.0047645221
smoothSolver:  Solving for omega, Initial residual = 0.001798205, Final residual = 0.00011586267, No Iterations 2
smoothSolver:  Solving for k, Initial residual = 0.0052353431, Final residual = 0.00049087438, No Iterations 2
ExecutionTime = 4.74 s  ClockTime = 5 s

Time = 38

smoothSolver:  Solving for Ux, Initial residual = 0.1086551, Final residual = 0.002821783, No Iterations 2
smoothSolver:  Solving for Uy, Initial residual = 0.025075549, Final residual = 0.00058373413, No Iterations 2
smoothSolver:  Solving for Uz, Initial residual = 0.10483063, Final residual = 0.0026740031, No Iterations 2
GAMG:  Solving for p, Initial residual = 0.44743388, Final residual = 0.0039458081, No Iterations 4
GAMG:  Solving for p, Initial residual = 0.0036943773, Final residual = 3.13777e-05, No Iterations 4
GAMG:  Solving for p, Initial residual = 0.0004346404, Final residual = 3.283743e-06, No Iterations 3
GAMG:  Solving for p, Initial residual = 6.9886048e-05, Final residual = 4.930434e-07, No Iterations 3
GAMG:  Solving for p, Initial residual = 1.776705e-05, Final residual = 1.546953e-07, No Iterations 2
GAMG:  Solving for p, Initial residual = 4.4625425e-06, Final residual = 1.9636786e-08, No Iterations 3
time step continuity errors : sum local = 1.7237632e-05, global = 3.0292809e-07, cumulative = 0.004764825
smoothSolver:  Solving for omega, Initial residual = 0.0017688665, Final residual = 0.00011371819, No Iterations 2
smoothSolver:  Solving for k, Initial residual = 0.0051834806, Final residual = 0.00048650481, No Iterations 2
ExecutionTime = 4.86 s  ClockTime = 5 s

Time = 39

smoothSolver:  Solving for Ux, Initial residual = 0.095213862, Final residual = 0.0024297017, No Iterations 2
smoothSolver:  Solving for Uy, Initial residual = 0.029388931, Final residual = 0.00061792943, No Iterations 2
smoothSolver:  Solving for Uz, Initial residual = 0.092179164, Final residual = 0.0023061031, No Iterations 2
GAMG:  Solving for p, Initial residual = 0.25600087, Final residual = 0.00081218114, No Iterations 4
GAMG:  Solving for p, Initial residual = 0.0059312926, Final residual = 4.5525901e-05, No Iterations 3
GAMG:  Solving for p, Initial residual = 0.00055760206, Final residual = 4.4422177e-06, No Iterations 3
GAMG:  Solving for p, Initial residual = 8.6848947e-05, Final residual = 6.2131413e-07, No Iterations 3
GAMG:  Solving for p, Initial residual = 1.8896034e-05, Final residual = 1.8357944e-07, No Iterations 2
GAMG:  Solving for p, Initial residual = 4.5497173e-06, Final residual = 2.1694483e-08, No Iterations 3
time step continuity errors : sum local = 8.5817991e-06, global = 5.3917893e-07, cumulative = 0.0047653642
smoothSolver:  Solving for omega, Initial residual = 0.0017410678, Final residual = 0.00011151679, No Iterations 2
smoothSolver:  Solving for k, Initial residual = 0.0051292706, Final residual = 0.00048171418, No Iterations 2
ExecutionTime = 4.96 s  ClockTime = 5 s

Time = 40

smoothSolver:  Solving for Ux, Initial residual = 0.085922325, Final residual = 0.0021392325, No Iterations 2
smoothSolver:  Solving for Uy, Initial residual = 0.029519928, Final residual = 0.00069293933, No Iterations 2
smoothSolver:  Solving for Uz, Initial residual = 0.083136059, Final residual = 0.0020351945, No Iterations 2
GAMG:  Solving for p, Initial residual = 0.22413697, Final residual = 0.0015491003, No Iterations 4
GAMG:  Solving for p, Initial residual = 0.0059884263, Final residual = 3.1123752e-05, No Iterations 4
GAMG:  Solving for p, Initial residual = 0.00056924444, Final residual = 4.2932356e-06, No Iterations 3
GAMG:  Solving for p, Initial residual = 8.2011484e-05, Final residual = 5.7245146e-07, No Iterations 3
GAMG:  Solving for p, Initial residual = 1.7494456e-05, Final residual = 9.1955764e-08, No Iterations 3
GAMG:  Solving for p, Initial residual = 4.0982032e-06, Final residual = 1.5521092e-08, No Iterations 3
time step continuity errors : sum local = 6.3433908e-06, global = -3.759454e-07, cumulative = 0.0047649882
smoothSolver:  Solving for omega, Initial residual = 0.0017145515, Final residual = 0.00010931096, No Iterations 2
smoothSolver:  Solving for k, Initial residual = 0.0050738603, Final residual = 0.00047650455, No Iterations 2
ExecutionTime = 5.09 s  ClockTime = 5 s

Time = 41

smoothSolver:  Solving for Ux, Initial residual = 0.082626049, Final residual = 0.0021675161, No Iterations 2
smoothSolver:  Solving for Uy, Initial residual = 0.02140533, Final residual = 0.00053962501, No Iterations 2
smoothSolver:  Solving for Uz, Initial residual = 0.079858798, Final residual = 0.0020799096, No Iterations 2
GAMG:  Solving for p, Initial residual = 0.3916074, Final residual = 0.0035115356, No Iterations 4
GAMG:  Solving for p, Initial residual = 0.0040651368, Final residual = 2.3501929e-05, No Iterations 4
GAMG:  Solving for p, Initial residual = 0.0003851582, Final residual = 2.1850509e-06, No Iterations 3
GAMG:  Solving for p, Initial residual = 5.5237782e-05, Final residual = 2.7620063e-07, No Iterations 3
GAMG:  Solving for p, Initial residual = 1.2148994e-05, Final residual = 1.0281666e-07, No Iterations 2
GAMG:  Solving for p, Initial residual = 2.8948991e-06, Final residual = 1.2833987e-08, No Iterations 3
time step continuity errors : sum local = 7.2894721e-06, global = -4.7203689e-07, cumulative = 0.0047645162
smoothSolver:  Solving for omega, Initial residual = 0.0016891543, Final residual = 0.00010711698, No Iterations 2
smoothSolver:  Solving for k, Initial residual = 0.0050218074, Final residual = 0.00047128036, No Iterations 2
ExecutionTime = 5.21 s  ClockTime = 5 s

Time = 42

smoothSolver:  Solving for Ux, Initial residual = 0.081913447, Final residual = 0.0022913144, No Iterations 2
smoothSolver:  Solving for Uy, Initial residual = 0.020047452, Final residual = 0.00048604449, No Iterations 2
smoothSolver:  Solving for Uz, Initial residual = 0.078936583, Final residual = 0.0021986444, No Iterations 2
GAMG:  Solving for p, Initial residual = 0.29649101, Final residual = 0.00078570674, No Iterations 4
GAMG:  Solving for p, Initial residual = 0.0046756952, Final residual = 3.9103496e-05, No Iterations 3
GAMG:  Solving for p, Initial residual = 0.00040391255, Final residual = 2.2212286e-06, No Iterations 4
GAMG:  Solving for p, Initial residual = 5.8956881e-05, Final residual = 3.3197283e-07, No Iterations 3
GAMG:  Solving for p, Initial residual = 1.185647e-05, Final residual = 1.0899175e-07, No Iterations 2
GAMG:  Solving for p, Initial residual = 2.7262902e-06, Final residual = 1.4399685e-08, No Iterations 3
time step continuity errors : sum local = 5.2341124e-06, global = -4.9874174e-07, cumulative = 0.0047640174
smoothSolver:  Solving for omega, Initial residual = 0.0016647896, Final residual = 0.00010494742, No Iterations 2
smoothSolver:  Solving for k, Initial residual = 0.0049763476, Final residual = 0.00046652034, No Iterations 2
ExecutionTime = 5.36 s  ClockTime = 5 s

Time = 43

smoothSolver:  Solving for Ux, Initial residual = 0.078286815, Final residual = 0.0022069442, No Iterations 2
smoothSolver:  Solving for Uy, Initial residual = 0.020503075, Final residual = 0.00051808485, No Iterations 2
smoothSolver:  Solving for Uz, Initial residual = 0.075653772, Final residual = 0.0021303603, No Iterations 2
GAMG:  Solving for p, Initial residual = 0.22080576, Final residual = 0.00085943787, No Iterations 4
GAMG:  Solving for p, Initial residual = 0.0098963838, Final residual = 9.6557187e-05, No Iterations 3
GAMG:  Solving for p, Initial residual = 0.00091110543, Final residual = 8.0271453e-06, No Iterations 3
GAMG:  Solving for p, Initial residual = 0.00012626001, Final residual = 9.9327461e-07, No Iterations 3
GAMG:  Solving for p, Initial residual = 2.5617264e-05, Final residual = 1.4518898e-07, No Iterations 3
GAMG:  Solving for p, Initial residual = 5.6628528e-06, Final residual = 5.0180858e-08, No Iterations 2
time step continuity errors : sum local = 8.3046651e-06, global = 1.3327536e-06, cumulative = 0.0047653502
smoothSolver:  Solving for omega, Initial residual = 0.0016408921, Final residual = 0.00010278212, No Iterations 2
smoothSolver:  Solving for k, Initial residual = 0.0049325901, Final residual = 0.00046199175, No Iterations 2
ExecutionTime = 5.48 s  ClockTime = 6 s

Time = 44

smoothSolver:  Solving for Ux, Initial residual = 0.07129292, Final residual = 0.0019414592, No Iterations 2
smoothSolver:  Solving for Uy, Initial residual = 0.017455266, Final residual = 0.00043937381, No Iterations 2
smoothSolver:  Solving for Uz, Initial residual = 0.06899512, Final residual = 0.0018651507, No Iterations 2
GAMG:  Solving for p, Initial residual = 0.28164187, Final residual = 0.0023137909, No Iterations 4
GAMG:  Solving for p, Initial residual = 0.0051683643, Final residual = 2.9768889e-05, No Iterations 4
GAMG:  Solving for p, Initial residual = 0.00049099826, Final residual = 2.7856511e-06, No Iterations 3
GAMG:  Solving for p, Initial residual = 6.793462e-05, Final residual = 3.6803172e-07, No Iterations 3
GAMG:  Solving for p, Initial residual = 1.4501838e-05, Final residual = 1.1256168e-07, No Iterations 2
GAMG:  Solving for p, Initial residual = 3.2690772e-06, Final residual = 1.4241646e-08, No Iterations 3
time step continuity errors : sum local = 4.4553891e-06, global = 3.1063839e-07, cumulative = 0.0047656608
smoothSolver:  Solving for omega, Initial residual = 0.0016178481, Final residual = 0.00010065277, No Iterations 2
smoothSolver:  Solving for k, Initial residual = 0.0048898119, Final residual = 0.0004575059, No Iterations 2
ExecutionTime = 5.6 s  ClockTime = 6 s

Time = 45

smoothSolver:  Solving for Ux, Initial residual = 0.062637876, Final residual = 0.0016465161, No Iterations 2
smoothSolver:  Solving for Uy, Initial residual = 0.015485036, Final residual = 0.00033422108, No Iterations 2
smoothSolver:  Solving for Uz, Initial residual = 0.061139075, Final residual = 0.0016092184, No Iterations 2
GAMG:  Solving for p, Initial residual = 0.48502994, Final residual = 0.0020381513, No Iterations 4
GAMG:  Solving for p, Initial residual = 0.0053206909, Final residual = 2.9352851e-05, No Iterations 4
GAMG:  Solving for p, Initial residual = 0.00046692133, Final residual = 2.8399202e-06, No Iterations 3
GAMG:  Solving for p, Initial residual = 7.0630273e-05, Final residual = 4.0433708e-07, No Iterations 3
GAMG:  Solving for p, Initial residual = 1.5158759e-05, Final residual = 1.2954031e-07, No Iterations 2
GAMG:  Solving for p, Initial residual = 3.6135255e-06, Final residual = 1.5889932e-08, No Iterations 3
time step continuity errors : sum local = 3.8364249e-06, global = 5.0173494e-07, cumulative = 0.0047661626
smoothSolver:  Solving for omega, Initial residual = 0.0015959857, Final residual = 9.8595274e-05, No Iterations 2
smoothSolver:  Solving for k, Initial residual = 0.0048481877, Final residual = 0.00045302681, No Iterations 2
ExecutionTime = 5.72 s  ClockTime = 6 s

Time = 46

smoothSolver:  Solving for Ux, Initial residual = 0.054677594, Final residual = 0.001412388, No Iterations 2
smoothSolver:  Solving for Uy, Initial residual = 0.015886452, Final residual = 0.00032373237, No Iterations 2
smoothSolver:  Solving for Uz, Initial residual = 0.054079261, Final residual = 0.0014255931, No Iterations 2
GAMG:  Solving for p, Initial residual = 0.30803929, Final residual = 0.0010407476, No Iterations 4
GAMG:  Solving for p, Initial residual = 0.011440486, Final residual = 0.0001030878, No Iterations 3
GAMG:  Solving for p, Initial residual = 0.00098307987, Final residual = 8.1831548e-06, No Iterations 3
GAMG:  Solving for p, Initial residual = 0.00014047613, Final residual = 1.1196436e-06, No Iterations 3
GAMG:  Solving for p, Initial residual = 3.0086895e-05, Final residual = 1.6715834e-07, No Iterations 3
GAMG:  Solving for p, Initial residual = 7.2321581e-06, Final residual = 2.9244677e-08, No Iterations 3
time step continuity errors : sum local = 3.1206935e-06, global = -2.237844e-08, cumulative = 0.0047661402
smoothSolver:  Solving for omega, Initial residual = 0.0015751886, Final residual = 9.6634434e-05, No Iterations 2
smoothSolver:  Solving for k, Initial residual = 0.0048078811, Final residual = 0.00044860764, No Iterations 2
ExecutionTime = 5.82 s  ClockTime = 6 s

Time = 47

smoothSolver:  Solving for Ux, Initial residual = 0.049504175, Final residual = 0.0012688671, No Iterations 2
smoothSolver:  Solving for Uy, Initial residual = 0.015168413, Final residual = 0.00034118512, No Iterations 2
smoothSolver:  Solving for Uz, Initial residual = 0.04952528, Final residual = 0.0013011746, No Iterations 2
GAMG:  Solving for p, Initial residual = 0.35674553, Final residual = 0.0018380882, No Iterations 4
GAMG:  Solving for p, Initial residual = 0.0050424162, Final residual = 2.7359429e-05, No Iterations 4
GAMG:  Solving for p, Initial residual = 0.00046890437, Final residual = 3.997808e-06, No Iterations 3
GAMG:  Solving for p, Initial residual = 6.3317739e-05, Final residual = 4.9516734e-07, No Iterations 3
GAMG:  Solving for p, Initial residual = 1.2430293e-05, Final residual = 8.3383302e-08, No Iterations 3
GAMG:  Solving for p, Initial residual = 2.7185205e-06, Final residual = 2.6976906e-08, No Iterations 2
time step continuity errors : sum local = 6.0097445e-06, global = -7.5416767e-07, cumulative = 0.004765386
smoothSolver:  Solving for omega, Initial residual = 0.0015551302, Final residual = 9.4785374e-05, No Iterations 2
smoothSolver:  Solving for k, Initial residual = 0.0047687739, Final residual = 0.00044430984, No Iterations 2
ExecutionTime = 5.94 s  ClockTime = 6 s

Time = 48

smoothSolver:  Solving for Ux, Initial residual = 0.048243704, Final residual = 0.0012855652, No Iterations 2
smoothSolver:  Solving for Uy, Initial residual = 0.014137574, Final residual = 0.00034257323, No Iterations 2
smoothSolver:  Solving for Uz, Initial residual = 0.048102012, Final residual = 0.0012837899, No Iterations 2
GAMG:  Solving for p, Initial residual = 0.35875232, Final residual = 0.0019115136, No Iterations 4
GAMG:  Solving for p, Initial residual = 0.0045225138, Final residual = 3.9271255e-05, No Iterations 4
GAMG:  Solving for p, Initial residual = 0.00037770539, Final residual = 3.3936141e-06, No Iterations 3
GAMG:  Solving for p, Initial residual = 5.2184651e-05, Final residual = 4.4387501e-07, No Iterations 3
GAMG:  Solving for p, Initial residual = 1.0298315e-05, Final residual = 6.5746688e-08, No Iterations 3
GAMG:  Solving for p, Initial residual = 2.2644487e-06, Final residual = 1.2295583e-08, No Iterations 3
time step continuity errors : sum local = 2.6464956e-06, global = -1.236712e-07, cumulative = 0.0047652623
smoothSolver:  Solving for omega, Initial residual = 0.0015355933, Final residual = 9.3030131e-05, No Iterations 2
smoothSolver:  Solving for k, Initial residual = 0.0047307239, Final residual = 0.00044015431, No Iterations 2
ExecutionTime = 6.06 s  ClockTime = 6 s

Time = 49

smoothSolver:  Solving for Ux, Initial residual = 0.047841635, Final residual = 0.0013125473, No Iterations 2
smoothSolver:  Solving for Uy, Initial residual = 0.013732931, Final residual = 0.00031894786, No Iterations 2
smoothSolver:  Solving for Uz, Initial residual = 0.047463966, Final residual = 0.0012970643, No Iterations 2
GAMG:  Solving for p, Initial residual = 0.23498768, Final residual = 0.0018276821, No Iterations 3
GAMG:  Solving for p, Initial residual = 0.0071039142, Final residual = 6.9670708e-05, No Iterations 3
GAMG:  Solving for p, Initial residual = 0.00061373025, Final residual = 4.6857061e-06, No Iterations 3
GAMG:  Solving for p, Initial residual = 8.2362593e-05, Final residual = 5.1414174e-07, No Iterations 3
GAMG:  Solving for p, Initial residual = 1.6403041e-05, Final residual = 6.5961928e-08, No Iterations 3
GAMG:  Solving for p, Initial residual = 3.6656211e-06, Final residual = 2.9357084e-08, No Iterations 2
time step continuity errors : sum local = 3.5987322e-06, global = 9.2803455e-07, cumulative = 0.0047661904
smoothSolver:  Solving for omega, Initial residual = 0.0015165188, Final residual = 9.136098e-05, No Iterations 2
smoothSolver:  Solving for k, Initial residual = 0.0046936903, Final residual = 0.00043611298, No Iterations 2
ExecutionTime = 6.18 s  ClockTime = 6 s

Time = 50

smoothSolver:  Solving for Ux, Initial residual = 0.045967393, Final residual = 0.0012710014, No Iterations 2
smoothSolver:  Solving for Uy, Initial residual = 0.013034144, Final residual = 0.00028675419, No Iterations 2
smoothSolver:  Solving for Uz, Initial residual = 0.045575965, Final residual = 0.0012644918, No Iterations 2
GAMG:  Solving for p, Initial residual = 0.22159918, Final residual = 0.00086339195, No Iterations 4
GAMG:  Solving for p, Initial residual = 0.0090369472, Final residual = 7.6626027e-05, No Iterations 3
GAMG:  Solving for p, Initial residual = 0.00077157169, Final residual = 5.9828118e-06, No Iterations 3
GAMG:  Solving for p, Initial residual = 0.0001056715, Final residual = 7.2960795e-07, No Iterations 3
GAMG:  Solving for p, Initial residual = 2.1043946e-05, Final residual = 1.1556909e-07, No Iterations 3
GAMG:  Solving for p, Initial residual = 4.6426159e-06, Final residual = 3.849857e-08, No Iterations 2
time step continuity errors : sum local = 3.6020746e-06, global = 5.0999324e-07, cumulative = 0.0047667004
smoothSolver:  Solving for omega, Initial residual = 0.0014979637, Final residual = 8.9774466e-05, No Iterations 2
smoothSolver:  Solving for k, Initial residual = 0.0046576485, Final residual = 0.00043214991, No Iterations 2
ExecutionTime = 6.36 s  ClockTime = 6 s

Time = 51

smoothSolver:  Solving for Ux, Initial residual = 0.042180893, Final residual = 0.0011427583, No Iterations 2
smoothSolver:  Solving for Uy, Initial residual = 0.012083237, Final residual = 0.00025993261, No Iterations 2
smoothSolver:  Solving for Uz, Initial residual = 0.042047368, Final residual = 0.0011498406, No Iterations 2
GAMG:  Solving for p, Initial residual = 0.27283777, Final residual = 0.0011801456, No Iterations 4
GAMG:  Solving for p, Initial residual = 0.0069073661, Final residual = 6.8033603e-05, No Iterations 3
GAMG:  Solving for p, Initial residual = 0.00060647489, Final residual = 4.7500182e-06, No Iterations 3
GAMG:  Solving for p, Initial residual = 8.7331105e-05, Final residual = 6.3762832e-07, No Iterations 3
GAMG:  Solving for p, Initial residual = 1.8676648e-05, Final residual = 9.8051901e-08, No Iterations 3
GAMG:  Solving for p, Initial residual = 4.428016e-06, Final residual = 1.8769116e-08, No Iterations 3
time step continuity errors : sum local = 2.0249183e-06, global = -1.2352285e-08, cumulative = 0.004766688
smoothSolver:  Solving for omega, Initial residual = 0.0014800645, Final residual = 8.8281904e-05, No Iterations 2
smoothSolver:  Solving for k, Initial residual = 0.004622591, Final residual = 0.00042826118, No Iterations 2
ExecutionTime = 6.49 s  ClockTime = 7 s

Time = 52

smoothSolver:  Solving for Ux, Initial residual = 0.037306334, Final residual = 0.00096081634, No Iterations 2
smoothSolver:  Solving for Uy, Initial residual = 0.011708045, Final residual = 0.00024333118, No Iterations 2
smoothSolver:  Solving for Uz, Initial residual = 0.037697844, Final residual = 0.00099076598, No Iterations 2
GAMG:  Solving for p, Initial residual = 0.3602834, Final residual = 0.0021769655, No Iterations 3
GAMG:  Solving for p, Initial residual = 0.010390246, Final residual = 9.6173185e-05, No Iterations 3
GAMG:  Solving for p, Initial residual = 0.00085067971, Final residual = 6.4391054e-06, No Iterations 3
GAMG:  Solving for p, Initial residual = 0.00012371431, Final residual = 8.8520161e-07, No Iterations 3
GAMG:  Solving for p, Initial residual = 2.584264e-05, Final residual = 1.6602822e-07, No Iterations 3
GAMG:  Solving for p, Initial residual = 6.2651134e-06, Final residual = 2.7418844e-08, No Iterations 3
time step continuity errors : sum local = 1.7699193e-06, global = 3.4168312e-08, cumulative = 0.0047667222
smoothSolver:  Solving for omega, Initial residual = 0.0014628365, Final residual = 8.6886886e-05, No Iterations 2
smoothSolver:  Solving for k, Initial residual = 0.0045884832, Final residual = 0.00042445072, No Iterations 2
ExecutionTime = 6.61 s  ClockTime = 7 s

Time = 53

smoothSolver:  Solving for Ux, Initial residual = 0.033383331, Final residual = 0.00082453121, No Iterations 2
smoothSolver:  Solving for Uy, Initial residual = 0.011564425, Final residual = 0.00023931243, No Iterations 2
smoothSolver:  Solving for Uz, Initial residual = 0.034317505, Final residual = 0.00087642277, No Iterations 2
GAMG:  Solving for p, Initial residual = 0.36560875, Final residual = 0.0012889335, No Iterations 4
GAMG:  Solving for p, Initial residual = 0.0059650425, Final residual = 5.9568204e-05, No Iterations 3
GAMG:  Solving for p, Initial residual = 0.00050711057, Final residual = 3.9850461e-06, No Iterations 3
GAMG:  Solving for p, Initial residual = 6.9500648e-05, Final residual = 5.0435961e-07, No Iterations 3
GAMG:  Solving for p, Initial residual = 1.3825804e-05, Final residual = 6.739937e-08, No Iterations 3
GAMG:  Solving for p, Initial residual = 3.0901834e-06, Final residual = 1.3069746e-08, No Iterations 3
time step continuity errors : sum local = 1.302431e-06, global = 1.8760494e-08, cumulative = 0.004766741
smoothSolver:  Solving for omega, Initial residual = 0.0014463162, Final residual = 8.5592076e-05, No Iterations 2
smoothSolver:  Solving for k, Initial residual = 0.0045552436, Final residual = 0.00042072082, No Iterations 2
ExecutionTime = 6.72 s  ClockTime = 7 s

Time = 54

smoothSolver:  Solving for Ux, Initial residual = 0.031226616, Final residual = 0.00077987885, No Iterations 2
smoothSolver:  Solving for Uy, Initial residual = 0.011270859, Final residual = 0.00023759375, No Iterations 2
smoothSolver:  Solving for Uz, Initial residual = 0.03266517, Final residual = 0.00085467879, No Iterations 2
GAMG:  Solving for p, Initial residual = 0.2790906, Final residual = 0.0010199123, No Iterations 4
GAMG:  Solving for p, Initial residual = 0.0043866187, Final residual = 3.5695221e-05, No Iterations 3
GAMG:  Solving for p, Initial residual = 0.00036948356, Final residual = 2.7338717e-06, No Iterations 3
GAMG:  Solving for p, Initial residual = 4.8906194e-05, Final residual = 3.4614778e-07, No Iterations 3
GAMG:  Solving for p, Initial residual = 9.5970159e-06, Final residual = 5.1175592e-08, No Iterations 3
GAMG:  Solving for p, Initial residual = 2.0662711e-06, Final residual = 1.9981004e-08, No Iterations 2
time step continuity errors : sum local = 2.4177637e-06, global = -3.8097845e-07, cumulative = 0.00476636
smoothSolver:  Solving for omega, Initial residual = 0.001430386, Final residual = 8.4387136e-05, No Iterations 2
smoothSolver:  Solving for k, Initial residual = 0.0045229182, Final residual = 0.00041708618, No Iterations 2
ExecutionTime = 6.83 s  ClockTime = 7 s

Time = 55

smoothSolver:  Solving for Ux, Initial residual = 0.030956733, Final residual = 0.00080381209, No Iterations 2
smoothSolver:  Solving for Uy, Initial residual = 0.010947283, Final residual = 0.00023568799, No Iterations 2
smoothSolver:  Solving for Uz, Initial residual = 0.032274063, Final residual = 0.00087645841, No Iterations 2
GAMG:  Solving for p, Initial residual = 0.20361882, Final residual = 0.0018892142, No Iterations 3
GAMG:  Solving for p, Initial residual = 0.0049097849, Final residual = 3.9504863e-05, No Iterations 4
GAMG:  Solving for p, Initial residual = 0.00039834847, Final residual = 3.4271062e-06, No Iterations 3
GAMG:  Solving for p, Initial residual = 5.1400197e-05, Final residual = 4.4891673e-07, No Iterations 3
GAMG:  Solving for p, Initial residual = 1.0195949e-05, Final residual = 6.8528775e-08, No Iterations 3
GAMG:  Solving for p, Initial residual = 2.2512101e-06, Final residual = 1.0265542e-08, No Iterations 3
time step continuity errors : sum local = 1.0801845e-06, global = -2.599669e-08, cumulative = 0.004766334
smoothSolver:  Solving for omega, Initial residual = 0.0014149713, Final residual = 8.3266897e-05, No Iterations 2
smoothSolver:  Solving for k, Initial residual = 0.0044914703, Final residual = 0.00041353964, No Iterations 2
ExecutionTime = 6.94 s  ClockTime = 7 s

Time = 56

smoothSolver:  Solving for Ux, Initial residual = 0.030767601, Final residual = 0.00081249647, No Iterations 2
smoothSolver:  Solving for Uy, Initial residual = 0.010625683, Final residual = 0.00022656896, No Iterations 2
smoothSolver:  Solving for Uz, Initial residual = 0.031714156, Final residual = 0.00086541034, No Iterations 2
GAMG:  Solving for p, Initial residual = 0.17230152, Final residual = 0.0016470089, No Iterations 3
GAMG:  Solving for p, Initial residual = 0.0060106006, Final residual = 3.301075e-05, No Iterations 4
GAMG:  Solving for p, Initial residual = 0.00050272608, Final residual = 2.8996884e-06, No Iterations 3
GAMG:  Solving for p, Initial residual = 6.691547e-05, Final residual = 4.2691293e-07, No Iterations 3
GAMG:  Solving for p, Initial residual = 1.348791e-05, Final residual = 5.7652934e-08, No Iterations 3
GAMG:  Solving for p, Initial residual = 3.0213018e-06, Final residual = 2.3220251e-08, No Iterations 2
time step continuity errors : sum local = 1.722544e-06, global = 3.4583804e-07, cumulative = 0.0047666798
smoothSolver:  Solving for omega, Initial residual = 0.0013999635, Final residual = 8.2213513e-05, No Iterations 2
smoothSolver:  Solving for k, Initial residual = 0.0044609151, Final residual = 0.00041007737, No Iterations 2
ExecutionTime = 7.05 s  ClockTime = 7 s

Time = 57

smoothSolver:  Solving for Ux, Initial residual = 0.029455063, Final residual = 0.00076664838, No Iterations 2
smoothSolver:  Solving for Uy, Initial residual = 0.010240504, Final residual = 0.00020898479, No Iterations 2
smoothSolver:  Solving for Uz, Initial residual = 0.030220674, Final residual = 0.00081123889, No Iterations 2
GAMG:  Solving for p, Initial residual = 0.16924616, Final residual = 0.00060524122, No Iterations 4
GAMG:  Solving for p, Initial residual = 0.0068020999, Final residual = 6.4475932e-05, No Iterations 3
GAMG:  Solving for p, Initial residual = 0.00063989029, Final residual = 4.6546466e-06, No Iterations 3
GAMG:  Solving for p, Initial residual = 8.9679423e-05, Final residual = 5.6048821e-07, No Iterations 3
GAMG:  Solving for p, Initial residual = 1.8825789e-05, Final residual = 7.210524e-08, No Iterations 3
GAMG:  Solving for p, Initial residual = 4.3474645e-06, Final residual = 3.8250239e-08, No Iterations 2
time step continuity errors : sum local = 2.0941747e-06, global = 5.2091832e-07, cumulative = 0.0047672007
smoothSolver:  Solving for omega, Initial residual = 0.0013854513, Final residual = 8.1222943e-05, No Iterations 2
smoothSolver:  Solving for k, Initial residual = 0.004431191, Final residual = 0.00040669162, No Iterations 2
ExecutionTime = 7.17 s  ClockTime = 7 s

Time = 58

smoothSolver:  Solving for Ux, Initial residual = 0.027135773, Final residual = 0.00067719848, No Iterations 2
smoothSolver:  Solving for Uy, Initial residual = 0.0099438153, Final residual = 0.00019710718, No Iterations 2
smoothSolver:  Solving for Uz, Initial residual = 0.028123553, Final residual = 0.00073371279, No Iterations 2
GAMG:  Solving for p, Initial residual = 0.17775229, Final residual = 0.00173588, No Iterations 3
GAMG:  Solving for p, Initial residual = 0.006450055, Final residual = 1.9970035e-05, No Iterations 5
GAMG:  Solving for p, Initial residual = 0.00057923825, Final residual = 3.0557257e-06, No Iterations 3
GAMG:  Solving for p, Initial residual = 8.6926983e-05, Final residual = 5.1348971e-07, No Iterations 3
GAMG:  Solving for p, Initial residual = 1.9024432e-05, Final residual = 1.8147645e-07, No Iterations 2
GAMG:  Solving for p, Initial residual = 4.7868253e-06, Final residual = 2.7571414e-08, No Iterations 3
time step continuity errors : sum local = 1.5671355e-06, global = 1.7114607e-07, cumulative = 0.0047673719
smoothSolver:  Solving for omega, Initial residual = 0.001371402, Final residual = 8.0290299e-05, No Iterations 2
smoothSolver:  Solving for k, Initial residual = 0.0044022899, Final residual = 0.00040338582, No Iterations 2
ExecutionTime = 7.31 s  ClockTime = 7 s

Time = 59

smoothSolver:  Solving for Ux, Initial residual = 0.024767724, Final residual = 0.00059235838, No Iterations 2
smoothSolver:  Solving for Uy, Initial residual = 0.0097699642, Final residual = 0.00019291237, No Iterations 2
smoothSolver:  Solving for Uz, Initial residual = 0.026098272, Final residual = 0.00066270601, No Iterations 2
GAMG:  Solving for p, Initial residual = 0.17772711, Final residual = 0.001400099, No Iterations 3
[...]
GAMG:  Solving for p, Initial residual = 1.7875588e-05, Final residual = 1.3077446e-07, No Iterations 3
GAMG:  Solving for p, Initial residual = 1.9036519e-06, Final residual = 9.6462981e-09, No Iterations 3
GAMG:  Solving for p, Initial residual = 3.1154959e-07, Final residual = 3.3845375e-09, No Iterations 2
GAMG:  Solving for p, Initial residual = 7.8267564e-08, Final residual = 2.8708622e-09, No Iterations 1
GAMG:  Solving for p, Initial residual = 1.8923776e-08, Final residual = 1.2699737e-09, No Iterations 1
GAMG:  Solving for p, Initial residual = 5.6080859e-09, Final residual = 5.6080859e-09, No Iterations 0
time step continuity errors : sum local = 6.5915978e-07, global = -3.4947358e-08, cumulative = 0.0047463101
smoothSolver:  Solving for omega, Initial residual = 2.6088387e-06, Final residual = 1.4712425e-07, No Iterations 2
smoothSolver:  Solving for k, Initial residual = 0.00013627075, Final residual = 9.2215662e-06, No Iterations 2
ExecutionTime = 38 s  ClockTime = 38 s

Time = 352

smoothSolver:  Solving for Ux, Initial residual = 3.1088715e-05, Final residual = 8.785319e-07, No Iterations 2
smoothSolver:  Solving for Uy, Initial residual = 8.9636914e-06, Final residual = 1.9729981e-07, No Iterations 2
smoothSolver:  Solving for Uz, Initial residual = 3.1215646e-05, Final residual = 8.494262e-07, No Iterations 2
GAMG:  Solving for p, Initial residual = 1.7425774e-05, Final residual = 1.2801144e-07, No Iterations 3
GAMG:  Solving for p, Initial residual = 1.8593664e-06, Final residual = 9.4259775e-09, No Iterations 3
GAMG:  Solving for p, Initial residual = 3.0399279e-07, Final residual = 3.3046797e-09, No Iterations 2
GAMG:  Solving for p, Initial residual = 7.6544071e-08, Final residual = 2.8268293e-09, No Iterations 1
GAMG:  Solving for p, Initial residual = 1.8493918e-08, Final residual = 1.2480296e-09, No Iterations 1
GAMG:  Solving for p, Initial residual = 5.4958608e-09, Final residual = 5.4958608e-09, No Iterations 0
time step continuity errors : sum local = 6.4591206e-07, global = -3.4566945e-08, cumulative = 0.0047462756
smoothSolver:  Solving for omega, Initial residual = 2.5472825e-06, Final residual = 1.4364385e-07, No Iterations 2
smoothSolver:  Solving for k, Initial residual = 0.00013333952, Final residual = 9.0213868e-06, No Iterations 2
ExecutionTime = 38.08 s  ClockTime = 38 s

Time = 353

smoothSolver:  Solving for Ux, Initial residual = 3.0453989e-05, Final residual = 8.6027282e-07, No Iterations 2
smoothSolver:  Solving for Uy, Initial residual = 8.7610576e-06, Final residual = 1.9282084e-07, No Iterations 2
smoothSolver:  Solving for Uz, Initial residual = 3.0580406e-05, Final residual = 8.3173717e-07, No Iterations 2
GAMG:  Solving for p, Initial residual = 1.7018053e-05, Final residual = 1.2557401e-07, No Iterations 3
GAMG:  Solving for p, Initial residual = 1.8183918e-06, Final residual = 9.2273748e-09, No Iterations 3
GAMG:  Solving for p, Initial residual = 2.9762925e-07, Final residual = 3.2306406e-09, No Iterations 2
GAMG:  Solving for p, Initial residual = 7.5039426e-08, Final residual = 2.7882284e-09, No Iterations 1
GAMG:  Solving for p, Initial residual = 1.8158127e-08, Final residual = 1.2294185e-09, No Iterations 1
GAMG:  Solving for p, Initial residual = 5.3986905e-09, Final residual = 5.3986905e-09, No Iterations 0
time step continuity errors : sum local = 6.3443681e-07, global = -3.4034868e-08, cumulative = 0.0047462415
smoothSolver:  Solving for omega, Initial residual = 2.4870683e-06, Final residual = 1.4023951e-07, No Iterations 2
smoothSolver:  Solving for k, Initial residual = 0.00013046365, Final residual = 8.8250383e-06, No Iterations 2
ExecutionTime = 38.17 s  ClockTime = 38 s

Time = 354

smoothSolver:  Solving for Ux, Initial residual = 2.9831358e-05, Final residual = 8.4234438e-07, No Iterations 2
smoothSolver:  Solving for Uy, Initial residual = 8.5625406e-06, Final residual = 1.8843314e-07, No Iterations 2
smoothSolver:  Solving for Uz, Initial residual = 2.9955078e-05, Final residual = 8.1435395e-07, No Iterations 2
GAMG:  Solving for p, Initial residual = 1.6638741e-05, Final residual = 1.233165e-07, No Iterations 3
GAMG:  Solving for p, Initial residual = 1.7808429e-06, Final residual = 9.0406565e-09, No Iterations 3
GAMG:  Solving for p, Initial residual = 2.9225266e-07, Final residual = 3.1596202e-09, No Iterations 2
GAMG:  Solving for p, Initial residual = 7.3566909e-08, Final residual = 2.7422496e-09, No Iterations 1
GAMG:  Solving for p, Initial residual = 1.7866933e-08, Final residual = 1.2101929e-09, No Iterations 1
GAMG:  Solving for p, Initial residual = 5.3218867e-09, Final residual = 5.3218867e-09, No Iterations 0
time step continuity errors : sum local = 6.2535801e-07, global = -3.4127094e-08, cumulative = 0.0047462074
smoothSolver:  Solving for omega, Initial residual = 2.4281701e-06, Final residual = 1.3690974e-07, No Iterations 2
smoothSolver:  Solving for k, Initial residual = 0.00012764232, Final residual = 8.6324615e-06, No Iterations 2
ExecutionTime = 38.26 s  ClockTime = 38 s

Time = 355

smoothSolver:  Solving for Ux, Initial residual = 2.9220527e-05, Final residual = 8.2474794e-07, No Iterations 2
smoothSolver:  Solving for Uy, Initial residual = 8.3680702e-06, Final residual = 1.8413517e-07, No Iterations 2
smoothSolver:  Solving for Uz, Initial residual = 2.9339515e-05, Final residual = 7.9726624e-07, No Iterations 2
GAMG:  Solving for p, Initial residual = 1.627646e-05, Final residual = 1.2112018e-07, No Iterations 3
GAMG:  Solving for p, Initial residual = 1.7453104e-06, Final residual = 8.8630167e-09, No Iterations 3
GAMG:  Solving for p, Initial residual = 2.8699235e-07, Final residual = 3.0893464e-09, No Iterations 2
GAMG:  Solving for p, Initial residual = 7.2338168e-08, Final residual = 2.6979741e-09, No Iterations 1
GAMG:  Solving for p, Initial residual = 1.7554686e-08, Final residual = 1.193034e-09, No Iterations 1
GAMG:  Solving for p, Initial residual = 5.2427048e-09, Final residual = 5.2427048e-09, No Iterations 0
time step continuity errors : sum local = 6.1600167e-07, global = -3.3649454e-08, cumulative = 0.0047461737
smoothSolver:  Solving for omega, Initial residual = 2.3705617e-06, Final residual = 1.336531e-07, No Iterations 2
smoothSolver:  Solving for k, Initial residual = 0.0001248747, Final residual = 8.4435982e-06, No Iterations 2
ExecutionTime = 38.35 s  ClockTime = 38 s

Time = 356

smoothSolver:  Solving for Ux, Initial residual = 2.8620715e-05, Final residual = 8.0747094e-07, No Iterations 2
smoothSolver:  Solving for Uy, Initial residual = 8.1775769e-06, Final residual = 1.7992535e-07, No Iterations 2
smoothSolver:  Solving for Uz, Initial residual = 2.8734211e-05, Final residual = 7.804847e-07, No Iterations 2
GAMG:  Solving for p, Initial residual = 1.5928061e-05, Final residual = 1.1892385e-07, No Iterations 3
GAMG:  Solving for p, Initial residual = 1.7114397e-06, Final residual = 8.6863258e-09, No Iterations 3
GAMG:  Solving for p, Initial residual = 2.8140207e-07, Final residual = 3.0193368e-09, No Iterations 2
GAMG:  Solving for p, Initial residual = 7.0904216e-08, Final residual = 2.6485091e-09, No Iterations 1
GAMG:  Solving for p, Initial residual = 1.7197589e-08, Final residual = 1.1748732e-09, No Iterations 1
GAMG:  Solving for p, Initial residual = 5.1445671e-09, Final residual = 5.1445671e-09, No Iterations 0
time step continuity errors : sum local = 6.0442144e-07, global = -3.2844069e-08, cumulative = 0.0047461409
smoothSolver:  Solving for omega, Initial residual = 2.3142178e-06, Final residual = 1.3046818e-07, No Iterations 2
smoothSolver:  Solving for k, Initial residual = 0.00012215996, Final residual = 8.2583899e-06, No Iterations 2
ExecutionTime = 38.44 s  ClockTime = 39 s

Time = 357

smoothSolver:  Solving for Ux, Initial residual = 2.8031101e-05, Final residual = 7.9053696e-07, No Iterations 2
smoothSolver:  Solving for Uy, Initial residual = 7.9909937e-06, Final residual = 1.7580184e-07, No Iterations 2
smoothSolver:  Solving for Uz, Initial residual = 2.8139702e-05, Final residual = 7.6401336e-07, No Iterations 2
GAMG:  Solving for p, Initial residual = 1.5583357e-05, Final residual = 1.1660303e-07, No Iterations 3
GAMG:  Solving for p, Initial residual = 1.6740232e-06, Final residual = 8.4858446e-09, No Iterations 3
GAMG:  Solving for p, Initial residual = 2.750037e-07, Final residual = 2.9471367e-09, No Iterations 2
GAMG:  Solving for p, Initial residual = 6.9244789e-08, Final residual = 2.5952603e-09, No Iterations 1
GAMG:  Solving for p, Initial residual = 1.6779691e-08, Final residual = 1.1527776e-09, No Iterations 1
GAMG:  Solving for p, Initial residual = 5.0207454e-09, Final residual = 5.0207454e-09, No Iterations 0
time step continuity errors : sum local = 5.8982616e-07, global = -3.1911795e-08, cumulative = 0.004746109
smoothSolver:  Solving for omega, Initial residual = 2.2591132e-06, Final residual = 1.2735358e-07, No Iterations 2
smoothSolver:  Solving for k, Initial residual = 0.00011949729, Final residual = 8.0767794e-06, No Iterations 2
ExecutionTime = 38.53 s  ClockTime = 39 s

Time = 358

smoothSolver:  Solving for Ux, Initial residual = 2.7452043e-05, Final residual = 7.7388218e-07, No Iterations 2
smoothSolver:  Solving for Uy, Initial residual = 7.8082412e-06, Final residual = 1.7176353e-07, No Iterations 2
smoothSolver:  Solving for Uz, Initial residual = 2.7556e-05, Final residual = 7.4783955e-07, No Iterations 2
GAMG:  Solving for p, Initial residual = 1.5252133e-05, Final residual = 1.1430375e-07, No Iterations 3
GAMG:  Solving for p, Initial residual = 1.6365572e-06, Final residual = 8.2869412e-09, No Iterations 3
GAMG:  Solving for p, Initial residual = 2.6889625e-07, Final residual = 2.8774999e-09, No Iterations 2
GAMG:  Solving for p, Initial residual = 6.7746123e-08, Final residual = 2.5474563e-09, No Iterations 1
GAMG:  Solving for p, Initial residual = 1.6396995e-08, Final residual = 1.1326928e-09, No Iterations 1
GAMG:  Solving for p, Initial residual = 4.9105559e-09, Final residual = 4.9105559e-09, No Iterations 0
time step continuity errors : sum local = 5.7683548e-07, global = -3.1230186e-08, cumulative = 0.0047460778
smoothSolver:  Solving for omega, Initial residual = 2.2052235e-06, Final residual = 1.2430792e-07, No Iterations 2
smoothSolver:  Solving for k, Initial residual = 0.00011688587, Final residual = 7.8987095e-06, No Iterations 2
ExecutionTime = 38.62 s  ClockTime = 39 s

Time = 359

smoothSolver:  Solving for Ux, Initial residual = 2.6882623e-05, Final residual = 7.5750268e-07, No Iterations 2
smoothSolver:  Solving for Uy, Initial residual = 7.6292637e-06, Final residual = 1.6780894e-07, No Iterations 2
smoothSolver:  Solving for Uz, Initial residual = 2.6982738e-05, Final residual = 7.3195884e-07, No Iterations 2
GAMG:  Solving for p, Initial residual = 1.4937587e-05, Final residual = 1.1206606e-07, No Iterations 3
GAMG:  Solving for p, Initial residual = 1.6019688e-06, Final residual = 8.1097296e-09, No Iterations 3
GAMG:  Solving for p, Initial residual = 2.6333086e-07, Final residual = 2.815311e-09, No Iterations 2
GAMG:  Solving for p, Initial residual = 6.6400295e-08, Final residual = 2.49498e-09, No Iterations 1
GAMG:  Solving for p, Initial residual = 1.6051146e-08, Final residual = 1.1120957e-09, No Iterations 1
GAMG:  Solving for p, Initial residual = 4.8177147e-09, Final residual = 4.8177147e-09, No Iterations 0
time step continuity errors : sum local = 5.6588547e-07, global = -3.0579421e-08, cumulative = 0.0047460472
smoothSolver:  Solving for omega, Initial residual = 2.1525243e-06, Final residual = 1.2132977e-07, No Iterations 2
smoothSolver:  Solving for k, Initial residual = 0.00011432492, Final residual = 7.7241239e-06, No Iterations 2
ExecutionTime = 38.7 s  ClockTime = 39 s

Time = 360

smoothSolver:  Solving for Ux, Initial residual = 2.6322564e-05, Final residual = 7.4140919e-07, No Iterations 2
smoothSolver:  Solving for Uy, Initial residual = 7.453997e-06, Final residual = 1.6393661e-07, No Iterations 2
smoothSolver:  Solving for Uz, Initial residual = 2.6419834e-05, Final residual = 7.1637313e-07, No Iterations 2
GAMG:  Solving for p, Initial residual = 1.4632318e-05, Final residual = 1.0989064e-07, No Iterations 3
GAMG:  Solving for p, Initial residual = 1.5724223e-06, Final residual = 7.947825e-09, No Iterations 3
GAMG:  Solving for p, Initial residual = 2.5922847e-07, Final residual = 2.762289e-09, No Iterations 2
GAMG:  Solving for p, Initial residual = 6.548209e-08, Final residual = 2.4494226e-09, No Iterations 1
GAMG:  Solving for p, Initial residual = 1.5841601e-08, Final residual = 1.0932174e-09, No Iterations 1
GAMG:  Solving for p, Initial residual = 4.7662979e-09, Final residual = 4.7662979e-09, No Iterations 0
time step continuity errors : sum local = 5.5980372e-07, global = -3.0090464e-08, cumulative = 0.0047460171
smoothSolver:  Solving for omega, Initial residual = 2.1009919e-06, Final residual = 1.1841777e-07, No Iterations 2
smoothSolver:  Solving for k, Initial residual = 0.00011181363, Final residual = 7.552967e-06, No Iterations 2
ExecutionTime = 38.79 s  ClockTime = 39 s

Time = 361

smoothSolver:  Solving for Ux, Initial residual = 2.5772089e-05, Final residual = 7.256086e-07, No Iterations 2
smoothSolver:  Solving for Uy, Initial residual = 7.2823742e-06, Final residual = 1.6014511e-07, No Iterations 2
smoothSolver:  Solving for Uz, Initial residual = 2.5867232e-05, Final residual = 7.0108144e-07, No Iterations 2
GAMG:  Solving for p, Initial residual = 1.4332581e-05, Final residual = 1.077731e-07, No Iterations 3
GAMG:  Solving for p, Initial residual = 1.5456649e-06, Final residual = 7.7976899e-09, No Iterations 3
GAMG:  Solving for p, Initial residual = 2.552713e-07, Final residual = 2.7134509e-09, No Iterations 2
GAMG:  Solving for p, Initial residual = 6.4660408e-08, Final residual = 2.4071225e-09, No Iterations 1
GAMG:  Solving for p, Initial residual = 1.5667262e-08, Final residual = 1.0756476e-09, No Iterations 1
GAMG:  Solving for p, Initial residual = 4.716299e-09, Final residual = 4.716299e-09, No Iterations 0
time step continuity errors : sum local = 5.5388978e-07, global = -2.9671119e-08, cumulative = 0.0047459874
smoothSolver:  Solving for omega, Initial residual = 2.0506031e-06, Final residual = 1.1557064e-07, No Iterations 2
smoothSolver:  Solving for k, Initial residual = 0.00010935123, Final residual = 7.3851836e-06, No Iterations 2
ExecutionTime = 38.87 s  ClockTime = 39 s

Time = 362

smoothSolver:  Solving for Ux, Initial residual = 2.5231403e-05, Final residual = 7.1010271e-07, No Iterations 2
smoothSolver:  Solving for Uy, Initial residual = 7.1143285e-06, Final residual = 1.5643304e-07, No Iterations 2
smoothSolver:  Solving for Uz, Initial residual = 2.5324994e-05, Final residual = 6.8608022e-07, No Iterations 2
GAMG:  Solving for p, Initial residual = 1.4040976e-05, Final residual = 1.0571992e-07, No Iterations 3
GAMG:  Solving for p, Initial residual = 1.5221647e-06, Final residual = 7.6659239e-09, No Iterations 3
GAMG:  Solving for p, Initial residual = 2.5187153e-07, Final residual = 2.668209e-09, No Iterations 2
GAMG:  Solving for p, Initial residual = 6.3887621e-08, Final residual = 2.3677074e-09, No Iterations 1
GAMG:  Solving for p, Initial residual = 1.5496905e-08, Final residual = 1.0596113e-09, No Iterations 1
GAMG:  Solving for p, Initial residual = 4.6658312e-09, Final residual = 4.6658312e-09, No Iterations 0
time step continuity errors : sum local = 5.4792259e-07, global = -2.929235e-08, cumulative = 0.0047459581
smoothSolver:  Solving for omega, Initial residual = 2.0013351e-06, Final residual = 1.1278703e-07, No Iterations 2
smoothSolver:  Solving for k, Initial residual = 0.00010693694, Final residual = 7.2207191e-06, No Iterations 2
ExecutionTime = 38.96 s  ClockTime = 39 s

Time = 363

smoothSolver:  Solving for Ux, Initial residual = 2.4700534e-05, Final residual = 6.9488669e-07, No Iterations 2
smoothSolver:  Solving for Uy, Initial residual = 6.9497987e-06, Final residual = 1.5279901e-07, No Iterations 2
smoothSolver:  Solving for Uz, Initial residual = 2.4792635e-05, Final residual = 6.713642e-07, No Iterations 2
GAMG:  Solving for p, Initial residual = 1.3755204e-05, Final residual = 1.0371197e-07, No Iterations 3
GAMG:  Solving for p, Initial residual = 1.4977013e-06, Final residual = 7.5225405e-09, No Iterations 3
GAMG:  Solving for p, Initial residual = 2.4840569e-07, Final residual = 2.618556e-09, No Iterations 2
GAMG:  Solving for p, Initial residual = 6.3106564e-08, Final residual = 2.3352944e-09, No Iterations 1
GAMG:  Solving for p, Initial residual = 1.5323402e-08, Final residual = 1.0448971e-09, No Iterations 1
GAMG:  Solving for p, Initial residual = 4.6142731e-09, Final residual = 4.6142731e-09, No Iterations 0
time step continuity errors : sum local = 5.4182864e-07, global = -2.8930738e-08, cumulative = 0.0047459292
smoothSolver:  Solving for omega, Initial residual = 1.9531654e-06, Final residual = 1.1006566e-07, No Iterations 2
smoothSolver:  Solving for k, Initial residual = 0.00010456997, Final residual = 7.0595186e-06, No Iterations 2
ExecutionTime = 39.05 s  ClockTime = 39 s

Time = 364

smoothSolver:  Solving for Ux, Initial residual = 2.4179447e-05, Final residual = 6.7995707e-07, No Iterations 2
smoothSolver:  Solving for Uy, Initial residual = 6.7887205e-06, Final residual = 1.4924166e-07, No Iterations 2
smoothSolver:  Solving for Uz, Initial residual = 2.4269954e-05, Final residual = 6.5692528e-07, No Iterations 2
GAMG:  Solving for p, Initial residual = 1.3475226e-05, Final residual = 1.0173889e-07, No Iterations 3
GAMG:  Solving for p, Initial residual = 1.470873e-06, Final residual = 7.3765754e-09, No Iterations 3
GAMG:  Solving for p, Initial residual = 2.4450613e-07, Final residual = 2.5644957e-09, No Iterations 2
GAMG:  Solving for p, Initial residual = 6.2111556e-08, Final residual = 2.3002509e-09, No Iterations 1
GAMG:  Solving for p, Initial residual = 1.5080374e-08, Final residual = 1.027529e-09, No Iterations 1
GAMG:  Solving for p, Initial residual = 4.540479e-09, Final residual = 4.540479e-09, No Iterations 0
time step continuity errors : sum local = 5.3312595e-07, global = -2.8421158e-08, cumulative = 0.0047459008
smoothSolver:  Solving for omega, Initial residual = 1.9060722e-06, Final residual = 1.0740527e-07, No Iterations 2
smoothSolver:  Solving for k, Initial residual = 0.00010224955, Final residual = 6.9015273e-06, No Iterations 2
ExecutionTime = 39.16 s  ClockTime = 39 s

Time = 365

smoothSolver:  Solving for Ux, Initial residual = 2.3668068e-05, Final residual = 6.6531057e-07, No Iterations 2
smoothSolver:  Solving for Uy, Initial residual = 6.6310333e-06, Final residual = 1.4575961e-07, No Iterations 2
smoothSolver:  Solving for Uz, Initial residual = 2.3756745e-05, Final residual = 6.427564e-07, No Iterations 2
GAMG:  Solving for p, Initial residual = 1.3200199e-05, Final residual = 9.9805484e-08, No Iterations 3
GAMG:  Solving for p, Initial residual = 1.4463348e-06, Final residual = 7.2314568e-09, No Iterations 3
GAMG:  Solving for p, Initial residual = 2.402328e-07, Final residual = 2.5143966e-09, No Iterations 2
GAMG:  Solving for p, Initial residual = 6.0957953e-08, Final residual = 2.2673358e-09, No Iterations 1
GAMG:  Solving for p, Initial residual = 1.4802296e-08, Final residual = 1.0125162e-09, No Iterations 1
GAMG:  Solving for p, Initial residual = 4.457454e-09, Final residual = 4.457454e-09, No Iterations 0
time step continuity errors : sum local = 5.2334116e-07, global = -2.7850747e-08, cumulative = 0.0047458729
smoothSolver:  Solving for omega, Initial residual = 1.8600338e-06, Final residual = 1.0480464e-07, No Iterations 2
smoothSolver:  Solving for k, Initial residual = 9.9974924e-05, Final residual = 6.7466921e-06, No Iterations 2
ExecutionTime = 39.25 s  ClockTime = 39 s


SIMPLE solution converged in 365 iterations

End

Finalising parallel run
