/*---------------------------------------------------------------------------*\
| =========                 |                                                 |
| \\      /  F ield         | OpenFOAM: The Open Source CFD Toolbox           |
|  \\    /   O peration     | Version:  2012                                  |
|   \\  /    A nd           | Website:  www.openfoam.com                      |
|    \\/     M anipulation  |                                                 |
\*---------------------------------------------------------------------------*/
Build  : _269d0ffd5c-20210619 OPENFOAM=2012 patch=210618
Arch   : "LSB;label=32;scalar=64"
Exec   : createPatch -overwrite
Date   : Jul 02 2021
Time   : 00:16:31
Host   : pop-os
PID    : 261394
I/O    : uncollated
Case   : /home/dileepn/FreeCAD/CfdOfRuns/FlowInCyl/case
nProcs : 1
trapFpe: Floating point exception trapping enabled (FOAM_SIGFPE).
fileModificationChecking : Monitoring run-time modified files using timeStampMaster (fileModificationSkew 5, maxFileModificationPolls 20)
allowSystemOperations : Allowing user-supplied system call operations

// * * * * * * * * * * * * * * * * * * * * * * * * * * * * * * * * * * * * * //
Create time

Create polyMesh for time = 0

Reading "system/createPatchDict"

Adding new patch wall as patch 3 from 
{
    type            wall;
}

Adding new patch inlet as patch 4 from 
{
    type            patch;
}

Adding new patch outlet as patch 5 from 
{
    type            patch;
}

Adding new patch defaultFaces as patch 6 from 
{
    type            patch;
}


Moving faces from patch patch_1_0 to patch 3
Moving faces from patch patch_2_0 to patch 4
Moving faces from patch patch_3_0 to patch 5
--> FOAM Warning : 
    From const Foam::HashTable<Foam::List<int> >& Foam::polyBoundaryMesh::groupPatchIDs() const
    in file meshes/polyMesh/polyBoundaryMesh/polyBoundaryMesh.C at line 510
    Removed patchGroup 'wall' which clashes with patch 3 of the same name.
--> FOAM Warning : 
    From Foam::labelHashSet Foam::polyBoundaryMesh::patchSet(const Foam::UList<Foam::wordRe>&, bool, bool) const
    in file meshes/polyMesh/polyBoundaryMesh/polyBoundaryMesh.C at line 896
    Cannot find any patch or group names matching "patch_0_.*"

Doing topology modification to order faces.

Not synchronising points.

Removing patches with no faces in them.

Removing zero-sized patch patch_1_0 type wall at position 0
Removing zero-sized patch patch_2_0 type wall at position 1
Removing zero-sized patch patch_3_0 type wall at position 2
Removing patches.
Writing repatched mesh to 0

End

