/*---------------------------------------------------------------------------*\
| =========                 |                                                 |
| \\      /  F ield         | OpenFOAM: The Open Source CFD Toolbox           |
|  \\    /   O peration     | Version:  2106                                  |
|   \\  /    A nd           | Website:  www.openfoam.com                      |
|    \\/     M anipulation  |                                                 |
\*---------------------------------------------------------------------------*/
Build  : _7b82832f-20210625 OPENFOAM=2106
Arch   : "LSB;label=32;scalar=64"
Exec   : pisoFoam -parallel
Date   : Jul 05 2021
Time   : 15:48:57
Host   : pop-os
PID    : 537536
I/O    : uncollated
Case   : /home/dileepn/FreeCAD/CfdOfRuns/vonKarman2D_cfMesh
nProcs : 4
Hosts  :
(
    (pop-os 4)
)
Pstream initialized with:
    floatTransfer      : 0
    nProcsSimpleSum    : 0
    commsType          : nonBlocking
    polling iterations : 0
trapFpe: Floating point exception trapping enabled (FOAM_SIGFPE).
fileModificationChecking : Monitoring run-time modified files using timeStampMaster (fileModificationSkew 5, maxFileModificationPolls 20)
allowSystemOperations : Allowing user-supplied system call operations

// * * * * * * * * * * * * * * * * * * * * * * * * * * * * * * * * * * * * * //
Create time

Create mesh for time = 0


PISO: Operating solver in PISO mode

Reading field p

Reading field U

Reading/calculating face flux field phi

Selecting incompressible transport model Newtonian
Selecting turbulence model type laminar
Selecting laminar stress model Stokes
No MRF models present

No finite volume options present

Starting time loop

Time = 0.001

Courant Number mean: 0.12091681 max: 2.6666041
smoothSolver:  Solving for Ux, Initial residual = 1, Final residual = 0.028469186, No Iterations 1
smoothSolver:  Solving for Uy, Initial residual = 1, Final residual = 0.043647459, No Iterations 1
GAMG:  Solving for p, Initial residual = 1, Final residual = 0.008280383, No Iterations 11
time step continuity errors : sum local = 8.8025443e-07, global = -6.2239594e-08, cumulative = -6.2239594e-08
GAMG:  Solving for p, Initial residual = 0.03264465, Final residual = 6.1916039e-06, No Iterations 20
time step continuity errors : sum local = 1.5096481e-08, global = -2.91001e-09, cumulative = -6.5149604e-08
ExecutionTime = 0.56 s  ClockTime = 0 s

Time = 0.002

Courant Number mean: 0.12237981 max: 1.0501998
smoothSolver:  Solving for Ux, Initial residual = 0.29232449, Final residual = 0.0038666712, No Iterations 1
smoothSolver:  Solving for Uy, Initial residual = 0.30160788, Final residual = 0.0032742134, No Iterations 1
GAMG:  Solving for p, Initial residual = 0.045629494, Final residual = 0.00041227844, No Iterations 11
time step continuity errors : sum local = 7.8518463e-07, global = -1.190573e-07, cumulative = -1.842069e-07
GAMG:  Solving for p, Initial residual = 0.024115912, Final residual = 4.3159841e-06, No Iterations 20
time step continuity errors : sum local = 1.0019296e-08, global = 1.8979018e-09, cumulative = -1.82309e-07
ExecutionTime = 0.82 s  ClockTime = 1 s

Time = 0.003

Courant Number mean: 0.12419941 max: 1.0509797
smoothSolver:  Solving for Ux, Initial residual = 0.1516802, Final residual = 0.0010663174, No Iterations 1
smoothSolver:  Solving for Uy, Initial residual = 0.13959619, Final residual = 0.00059663304, No Iterations 1
GAMG:  Solving for p, Initial residual = 0.014697017, Final residual = 0.00013697357, No Iterations 10
time step continuity errors : sum local = 2.898257e-07, global = 5.4524713e-08, cumulative = -1.2778429e-07
GAMG:  Solving for p, Initial residual = 0.0051487406, Final residual = 9.3795635e-07, No Iterations 20
time step continuity errors : sum local = 1.4623917e-09, global = -2.6933081e-10, cumulative = -1.2805362e-07
ExecutionTime = 1.07 s  ClockTime = 1 s

Time = 0.004

Courant Number mean: 0.12578942 max: 1.0176862
smoothSolver:  Solving for Ux, Initial residual = 0.097182331, Final residual = 0.00061060343, No Iterations 1
smoothSolver:  Solving for Uy, Initial residual = 0.091280817, Final residual = 0.00027853258, No Iterations 1
GAMG:  Solving for p, Initial residual = 0.0051823237, Final residual = 4.6244982e-05, No Iterations 8
time step continuity errors : sum local = 7.3442033e-08, global = 1.7525388e-08, cumulative = -1.1052823e-07
GAMG:  Solving for p, Initial residual = 0.001132076, Final residual = 4.6054603e-08, No Iterations 20
time step continuity errors : sum local = 6.6466459e-11, global = 1.0363989e-11, cumulative = -1.1051787e-07
ExecutionTime = 1.3 s  ClockTime = 1 s

Time = 0.005

Courant Number mean: 0.12725835 max: 0.99119734
smoothSolver:  Solving for Ux, Initial residual = 0.074684349, Final residual = 0.00046807699, No Iterations 1
smoothSolver:  Solving for Uy, Initial residual = 0.07082085, Final residual = 0.00021700427, No Iterations 1
GAMG:  Solving for p, Initial residual = 0.002831975, Final residual = 2.494597e-05, No Iterations 8
time step continuity errors : sum local = 3.5923821e-08, global = 8.6888866e-09, cumulative = -1.0182898e-07
GAMG:  Solving for p, Initial residual = 0.00070076464, Final residual = 1.8390056e-08, No Iterations 20
time step continuity errors : sum local = 2.5080385e-11, global = 4.0582394e-12, cumulative = -1.0182492e-07
ExecutionTime = 1.54 s  ClockTime = 1 s

Time = 0.006

Courant Number mean: 0.12865839 max: 0.96414784
smoothSolver:  Solving for Ux, Initial residual = 0.061829286, Final residual = 0.00038766462, No Iterations 1
smoothSolver:  Solving for Uy, Initial residual = 0.058988911, Final residual = 0.00018082068, No Iterations 1
GAMG:  Solving for p, Initial residual = 0.0021132895, Final residual = 1.5920549e-05, No Iterations 9
time step continuity errors : sum local = 2.1685569e-08, global = 5.2917192e-09, cumulative = -9.6533203e-08
GAMG:  Solving for p, Initial residual = 0.00049987233, Final residual = 1.1002232e-08, No Iterations 20
time step continuity errors : sum local = 1.4231464e-11, global = 1.67886e-12, cumulative = -9.6531524e-08
ExecutionTime = 1.78 s  ClockTime = 2 s

Time = 0.007

Courant Number mean: 0.13000253 max: 0.93708635
smoothSolver:  Solving for Ux, Initial residual = 0.052556454, Final residual = 0.00032982387, No Iterations 1
smoothSolver:  Solving for Uy, Initial residual = 0.050319184, Final residual = 0.00015504382, No Iterations 1
GAMG:  Solving for p, Initial residual = 0.0019591484, Final residual = 1.8618185e-05, No Iterations 9
time step continuity errors : sum local = 2.406579e-08, global = 5.9072687e-09, cumulative = -9.0624255e-08
GAMG:  Solving for p, Initial residual = 0.00045309792, Final residual = 1.5794133e-08, No Iterations 20
time step continuity errors : sum local = 1.924028e-11, global = 2.0300424e-12, cumulative = -9.0622225e-08
ExecutionTime = 2.02 s  ClockTime = 2 s

Time = 0.008

Courant Number mean: 0.13128511 max: 0.91050663
smoothSolver:  Solving for Ux, Initial residual = 0.045135186, Final residual = 0.00028361008, No Iterations 1
smoothSolver:  Solving for Uy, Initial residual = 0.043268227, Final residual = 0.00013449142, No Iterations 1
GAMG:  Solving for p, Initial residual = 0.0019400867, Final residual = 1.406062e-05, No Iterations 10
time step continuity errors : sum local = 1.7116591e-08, global = 4.0191382e-09, cumulative = -8.6603087e-08
GAMG:  Solving for p, Initial residual = 0.00046482343, Final residual = 1.4598203e-08, No Iterations 20
time step continuity errors : sum local = 1.6608817e-11, global = -7.6265509e-13, cumulative = -8.660385e-08
ExecutionTime = 2.28 s  ClockTime = 2 s

Time = 0.009

Courant Number mean: 0.13249588 max: 0.88467221
smoothSolver:  Solving for Ux, Initial residual = 0.039008067, Final residual = 0.0002455672, No Iterations 1
smoothSolver:  Solving for Uy, Initial residual = 0.037372569, Final residual = 0.00011745982, No Iterations 1
GAMG:  Solving for p, Initial residual = 0.0019684209, Final residual = 1.5390223e-05, No Iterations 10
time step continuity errors : sum local = 1.7508472e-08, global = 4.121514e-09, cumulative = -8.2482336e-08
GAMG:  Solving for p, Initial residual = 0.00048920629, Final residual = 1.6417054e-08, No Iterations 20
time step continuity errors : sum local = 1.7336387e-11, global = -9.5227978e-13, cumulative = -8.2483288e-08
ExecutionTime = 2.53 s  ClockTime = 2 s

Time = 0.01

Courant Number mean: 0.13362813 max: 0.85979744
smoothSolver:  Solving for Ux, Initial residual = 0.033873614, Final residual = 0.00021376227, No Iterations 1
smoothSolver:  Solving for Uy, Initial residual = 0.032389227, Final residual = 0.00010303922, No Iterations 1
GAMG:  Solving for p, Initial residual = 0.0020606535, Final residual = 1.6662146e-05, No Iterations 10
time step continuity errors : sum local = 1.7596085e-08, global = 4.1449879e-09, cumulative = -7.83383e-08
GAMG:  Solving for p, Initial residual = 0.00051357338, Final residual = 1.8140796e-08, No Iterations 20
time step continuity errors : sum local = 1.7671941e-11, global = -1.0439858e-12, cumulative = -7.8339344e-08
ExecutionTime = 2.78 s  ClockTime = 3 s

Time = 0.011

Courant Number mean: 0.13467865 max: 0.83593392
smoothSolver:  Solving for Ux, Initial residual = 0.029518842, Final residual = 0.00018679919, No Iterations 1
smoothSolver:  Solving for Uy, Initial residual = 0.028147644, Final residual = 9.0657713e-05, No Iterations 1
GAMG:  Solving for p, Initial residual = 0.002178864, Final residual = 1.7724431e-05, No Iterations 10
time step continuity errors : sum local = 1.7268692e-08, global = 4.0811478e-09, cumulative = -7.4258197e-08
GAMG:  Solving for p, Initial residual = 0.00053831968, Final residual = 1.9664808e-08, No Iterations 20
time step continuity errors : sum local = 1.7568987e-11, global = -1.1030521e-12, cumulative = -7.42593e-08
ExecutionTime = 3.03 s  ClockTime = 3 s

Time = 0.012

Courant Number mean: 0.13564589 max: 0.81307052
smoothSolver:  Solving for Ux, Initial residual = 0.025789988, Final residual = 0.00016367097, No Iterations 1
smoothSolver:  Solving for Uy, Initial residual = 0.024524929, Final residual = 7.9923078e-05, No Iterations 1
GAMG:  Solving for p, Initial residual = 0.0023030328, Final residual = 1.8691571e-05, No Iterations 10
time step continuity errors : sum local = 1.6702639e-08, global = 3.9465301e-09, cumulative = -7.0312769e-08
GAMG:  Solving for p, Initial residual = 0.00056466664, Final residual = 2.107624e-08, No Iterations 20
time step continuity errors : sum local = 1.7181084e-11, global = -1.1160566e-12, cumulative = -7.0313886e-08
ExecutionTime = 3.28 s  ClockTime = 3 s

Time = 0.013

Courant Number mean: 0.13653107 max: 0.79117564
smoothSolver:  Solving for Ux, Initial residual = 0.022577768, Final residual = 0.00014371349, No Iterations 1
smoothSolver:  Solving for Uy, Initial residual = 0.021412162, Final residual = 7.056927e-05, No Iterations 1
GAMG:  Solving for p, Initial residual = 0.0024319458, Final residual = 1.9462873e-05, No Iterations 10
time step continuity errors : sum local = 1.5870396e-08, global = 3.7530209e-09, cumulative = -6.6560865e-08
GAMG:  Solving for p, Initial residual = 0.00058728375, Final residual = 2.2292877e-08, No Iterations 20
time step continuity errors : sum local = 1.6512282e-11, global = -1.115606e-12, cumulative = -6.656198e-08
ExecutionTime = 3.53 s  ClockTime = 3 s

Time = 0.014

Courant Number mean: 0.13733654 max: 0.77021011
smoothSolver:  Solving for Ux, Initial residual = 0.01980538, Final residual = 0.00012644369, No Iterations 1
smoothSolver:  Solving for Uy, Initial residual = 0.01875558, Final residual = 6.239208e-05, No Iterations 1
GAMG:  Solving for p, Initial residual = 0.0025822179, Final residual = 2.0184833e-05, No Iterations 10
time step continuity errors : sum local = 1.4957302e-08, global = 3.5398452e-09, cumulative = -6.3022135e-08
GAMG:  Solving for p, Initial residual = 0.00060916146, Final residual = 2.3320649e-08, No Iterations 20
time step continuity errors : sum local = 1.5634895e-11, global = -1.1042613e-12, cumulative = -6.3023239e-08
ExecutionTime = 3.79 s  ClockTime = 4 s

Time = 0.015

Courant Number mean: 0.13806621 max: 0.75013838
smoothSolver:  Solving for Ux, Initial residual = 0.017403973, Final residual = 0.00011142214, No Iterations 1
smoothSolver:  Solving for Uy, Initial residual = 0.016445061, Final residual = 5.5238381e-05, No Iterations 1
GAMG:  Solving for p, Initial residual = 0.0026663288, Final residual = 2.0861295e-05, No Iterations 10
time step continuity errors : sum local = 1.3992583e-08, global = 3.3133279e-09, cumulative = -5.9709911e-08
GAMG:  Solving for p, Initial residual = 0.00062744218, Final residual = 2.4197945e-08, No Iterations 20
time step continuity errors : sum local = 1.4636547e-11, global = -1.0612247e-12, cumulative = -5.9710973e-08
ExecutionTime = 4.03 s  ClockTime = 4 s

Time = 0.016

Courant Number mean: 0.13872459 max: 0.73091185
smoothSolver:  Solving for Ux, Initial residual = 0.01532238, Final residual = 9.8345217e-05, No Iterations 1
smoothSolver:  Solving for Uy, Initial residual = 0.014429123, Final residual = 4.899648e-05, No Iterations 1
GAMG:  Solving for p, Initial residual = 0.0027930142, Final residual = 2.1374175e-05, No Iterations 10
time step continuity errors : sum local = 1.2935662e-08, global = 3.0625631e-09, cumulative = -5.664841e-08
GAMG:  Solving for p, Initial residual = 0.00064331849, Final residual = 2.4976235e-08, No Iterations 20
time step continuity errors : sum local = 1.3592038e-11, global = -1.0049883e-12, cumulative = -5.6649415e-08
ExecutionTime = 4.28 s  ClockTime = 4 s

Time = 0.017

Courant Number mean: 0.13931633 max: 0.71358159
smoothSolver:  Solving for Ux, Initial residual = 0.013512371, Final residual = 8.6929753e-05, No Iterations 1
smoothSolver:  Solving for Uy, Initial residual = 0.012669053, Final residual = 4.3530068e-05, No Iterations 1
GAMG:  Solving for p, Initial residual = 0.0029587625, Final residual = 2.1816855e-05, No Iterations 10
time step continuity errors : sum local = 1.1879738e-08, global = 2.8118249e-09, cumulative = -5.383759e-08
GAMG:  Solving for p, Initial residual = 0.00066669521, Final residual = 2.5862917e-08, No Iterations 20
time step continuity errors : sum local = 1.2627798e-11, global = -9.4980461e-13, cumulative = -5.3838539e-08
ExecutionTime = 4.53 s  ClockTime = 4 s

Time = 0.018

Courant Number mean: 0.13984636 max: 0.69700743
smoothSolver:  Solving for Ux, Initial residual = 0.011931048, Final residual = 7.6926796e-05, No Iterations 1
smoothSolver:  Solving for Uy, Initial residual = 0.01113527, Final residual = 3.8726518e-05, No Iterations 1
GAMG:  Solving for p, Initial residual = 0.0031094988, Final residual = 2.2275666e-05, No Iterations 10
time step continuity errors : sum local = 1.088251e-08, global = 2.5747429e-09, cumulative = -5.1263797e-08
GAMG:  Solving for p, Initial residual = 0.00068378725, Final residual = 2.6553324e-08, No Iterations 20
time step continuity errors : sum local = 1.1596167e-11, global = -8.7446318e-13, cumulative = -5.1264671e-08
ExecutionTime = 4.77 s  ClockTime = 5 s

Time = 0.019

Courant Number mean: 0.14031939 max: 0.68111117
smoothSolver:  Solving for Ux, Initial residual = 0.010540771, Final residual = 6.8121215e-05, No Iterations 1
smoothSolver:  Solving for Uy, Initial residual = 0.0098004174, Final residual = 3.4514419e-05, No Iterations 1
GAMG:  Solving for p, Initial residual = 0.0033004429, Final residual = 2.2724588e-05, No Iterations 10
time step continuity errors : sum local = 9.9306926e-09, global = 2.3485159e-09, cumulative = -4.8916155e-08
GAMG:  Solving for p, Initial residual = 0.00071108748, Final residual = 2.7118557e-08, No Iterations 20
time step continuity errors : sum local = 1.055602e-11, global = -8.0361654e-13, cumulative = -4.8916959e-08
ExecutionTime = 5.02 s  ClockTime = 5 s

Time = 0.02

Courant Number mean: 0.14073999 max: 0.66586096
smoothSolver:  Solving for Ux, Initial residual = 0.0093116333, Final residual = 6.0327847e-05, No Iterations 1
smoothSolver:  Solving for Uy, Initial residual = 0.0086437133, Final residual = 3.0798524e-05, No Iterations 1
GAMG:  Solving for p, Initial residual = 0.0035530833, Final residual = 3.5451089e-05, No Iterations 9
time step continuity errors : sum local = 1.3809029e-08, global = 3.4337388e-09, cumulative = -4.548322e-08
GAMG:  Solving for p, Initial residual = 0.00074973249, Final residual = 3.2257527e-08, No Iterations 20
time step continuity errors : sum local = 1.1142731e-11, global = 4.8937059e-13, cumulative = -4.548273e-08
ExecutionTime = 5.27 s  ClockTime = 5 s

Time = 0.021

Courant Number mean: 0.14111182 max: 0.65121883
smoothSolver:  Solving for Ux, Initial residual = 0.0082115235, Final residual = 5.3349544e-05, No Iterations 1
smoothSolver:  Solving for Uy, Initial residual = 0.0076263535, Final residual = 2.7547096e-05, No Iterations 1
GAMG:  Solving for p, Initial residual = 0.0038051119, Final residual = 3.7374121e-05, No Iterations 9
time step continuity errors : sum local = 1.2904078e-08, global = 3.2064896e-09, cumulative = -4.2276241e-08
GAMG:  Solving for p, Initial residual = 0.00079120527, Final residual = 3.5071652e-08, No Iterations 20
time step continuity errors : sum local = 1.0664307e-11, global = 5.0611888e-13, cumulative = -4.2275735e-08
ExecutionTime = 5.52 s  ClockTime = 5 s

Time = 0.022

Courant Number mean: 0.14143815 max: 0.63715134
smoothSolver:  Solving for Ux, Initial residual = 0.0072185185, Final residual = 4.7049064e-05, No Iterations 1
smoothSolver:  Solving for Uy, Initial residual = 0.0067050896, Final residual = 2.4740977e-05, No Iterations 1
GAMG:  Solving for p, Initial residual = 0.0041372342, Final residual = 3.8901253e-05, No Iterations 9
time step continuity errors : sum local = 1.1823109e-08, global = 2.9355975e-09, cumulative = -3.9340137e-08
GAMG:  Solving for p, Initial residual = 0.00082992013, Final residual = 3.7134961e-08, No Iterations 20
time step continuity errors : sum local = 9.8759779e-12, global = 4.6177859e-13, cumulative = -3.9339676e-08
ExecutionTime = 5.76 s  ClockTime = 6 s

Time = 0.023

Courant Number mean: 0.14172253 max: 0.6236272
smoothSolver:  Solving for Ux, Initial residual = 0.0063317125, Final residual = 4.1408232e-05, No Iterations 1
smoothSolver:  Solving for Uy, Initial residual = 0.0058798224, Final residual = 2.2242914e-05, No Iterations 1
GAMG:  Solving for p, Initial residual = 0.0044147958, Final residual = 4.0205987e-05, No Iterations 9
time step continuity errors : sum local = 1.0686896e-08, global = 2.6502804e-09, cumulative = -3.6689395e-08
GAMG:  Solving for p, Initial residual = 0.0008696745, Final residual = 3.8802914e-08, No Iterations 20
time step continuity errors : sum local = 8.9770773e-12, global = 4.3282725e-13, cumulative = -3.6688962e-08
ExecutionTime = 6 s  ClockTime = 6 s

Time = 0.024

Courant Number mean: 0.14196859 max: 0.61061839
smoothSolver:  Solving for Ux, Initial residual = 0.0055459152, Final residual = 3.6402513e-05, No Iterations 1
smoothSolver:  Solving for Uy, Initial residual = 0.0051577958, Final residual = 2.0019714e-05, No Iterations 1
GAMG:  Solving for p, Initial residual = 0.0047944091, Final residual = 4.2096608e-05, No Iterations 9
time step continuity errors : sum local = 9.7326789e-09, global = 2.4112679e-09, cumulative = -3.4277694e-08
GAMG:  Solving for p, Initial residual = 0.00091940674, Final residual = 4.0878163e-08, No Iterations 20
time step continuity errors : sum local = 8.1604316e-12, global = 3.9602598e-13, cumulative = -3.4277298e-08
ExecutionTime = 6.25 s  ClockTime = 6 s

Time = 0.025

Courant Number mean: 0.14217959 max: 0.61288003
smoothSolver:  Solving for Ux, Initial residual = 0.0048434293, Final residual = 3.1919784e-05, No Iterations 1
smoothSolver:  Solving for Uy, Initial residual = 0.0045229134, Final residual = 1.80273e-05, No Iterations 1
GAMG:  Solving for p, Initial residual = 0.0053505048, Final residual = 4.3302789e-05, No Iterations 9
time step continuity errors : sum local = 8.6394253e-09, global = 2.1331744e-09, cumulative = -3.2144124e-08
GAMG:  Solving for p, Initial residual = 0.00099655807, Final residual = 4.2966712e-08, No Iterations 20
time step continuity errors : sum local = 7.3551954e-12, global = 3.4863366e-13, cumulative = -3.2143775e-08
ExecutionTime = 6.68 s  ClockTime = 7 s

Time = 0.026

Courant Number mean: 0.14235883 max: 0.61537104
smoothSolver:  Solving for Ux, Initial residual = 0.0042207693, Final residual = 2.794134e-05, No Iterations 1
smoothSolver:  Solving for Uy, Initial residual = 0.0039699693, Final residual = 1.6263505e-05, No Iterations 1
GAMG:  Solving for p, Initial residual = 0.0056957808, Final residual = 4.3852999e-05, No Iterations 9
time step continuity errors : sum local = 7.5052574e-09, global = 1.8496853e-09, cumulative = -3.029409e-08
GAMG:  Solving for p, Initial residual = 0.0010535131, Final residual = 4.382554e-08, No Iterations 20
time step continuity errors : sum local = 6.414197e-12, global = 3.161994e-13, cumulative = -3.0293774e-08
ExecutionTime = 6.93 s  ClockTime = 7 s

Time = 0.027

Courant Number mean: 0.14250994 max: 0.61759927
smoothSolver:  Solving for Ux, Initial residual = 0.0036772234, Final residual = 2.4481624e-05, No Iterations 1
smoothSolver:  Solving for Uy, Initial residual = 0.0034915885, Final residual = 1.4747207e-05, No Iterations 1
GAMG:  Solving for p, Initial residual = 0.0061638977, Final residual = 4.4780124e-05, No Iterations 9
time step continuity errors : sum local = 6.5530134e-09, global = 1.6133083e-09, cumulative = -2.8680466e-08
GAMG:  Solving for p, Initial residual = 0.0011058834, Final residual = 4.5727323e-08, No Iterations 20
time step continuity errors : sum local = 5.6959853e-12, global = 2.9508565e-13, cumulative = -2.8680171e-08
ExecutionTime = 7.18 s  ClockTime = 7 s

Time = 0.028

Courant Number mean: 0.14263615 max: 0.61959548
smoothSolver:  Solving for Ux, Initial residual = 0.0032006617, Final residual = 2.1462269e-05, No Iterations 1
smoothSolver:  Solving for Uy, Initial residual = 0.0030838084, Final residual = 1.3440475e-05, No Iterations 1
GAMG:  Solving for p, Initial residual = 0.006813095, Final residual = 4.5887778e-05, No Iterations 9
time step continuity errors : sum local = 5.7146339e-09, global = 1.4044268e-09, cumulative = -2.7275744e-08
GAMG:  Solving for p, Initial residual = 0.0011821826, Final residual = 4.8348454e-08, No Iterations 20
time step continuity errors : sum local = 5.0990494e-12, global = 2.7052444e-13, cumulative = -2.7275473e-08
ExecutionTime = 7.42 s  ClockTime = 7 s

Time = 0.029

Courant Number mean: 0.14274045 max: 0.62138725
smoothSolver:  Solving for Ux, Initial residual = 0.0027868473, Final residual = 1.8834719e-05, No Iterations 1
smoothSolver:  Solving for Uy, Initial residual = 0.0027367453, Final residual = 1.2327881e-05, No Iterations 1
GAMG:  Solving for p, Initial residual = 0.0069268122, Final residual = 4.5542149e-05, No Iterations 9
time step continuity errors : sum local = 4.8007905e-09, global = 1.1849002e-09, cumulative = -2.6090573e-08
GAMG:  Solving for p, Initial residual = 0.0011993254, Final residual = 4.8717059e-08, No Iterations 20
time step continuity errors : sum local = 4.3731336e-12, global = 2.8688706e-13, cumulative = -2.6090286e-08
ExecutionTime = 7.66 s  ClockTime = 8 s

Time = 0.03

Courant Number mean: 0.1428264 max: 0.62300754
smoothSolver:  Solving for Ux, Initial residual = 0.0024487618, Final residual = 1.6669369e-05, No Iterations 1
smoothSolver:  Solving for Uy, Initial residual = 0.0024556253, Final residual = 1.1434154e-05, No Iterations 1
GAMG:  Solving for p, Initial residual = 0.0067248623, Final residual = 6.1626377e-05, No Iterations 8
time step continuity errors : sum local = 5.526539e-09, global = 1.3643344e-09, cumulative = -2.4725952e-08
GAMG:  Solving for p, Initial residual = 0.0011234726, Final residual = 5.752765e-08, No Iterations 20
time step continuity errors : sum local = 4.4986914e-12, global = 6.6820921e-13, cumulative = -2.4725284e-08
ExecutionTime = 7.9 s  ClockTime = 8 s

Time = 0.031

Courant Number mean: 0.14289834 max: 0.62449581
smoothSolver:  Solving for Ux, Initial residual = 0.0021976102, Final residual = 1.5035093e-05, No Iterations 1
smoothSolver:  Solving for Uy, Initial residual = 0.0022495038, Final residual = 1.076397e-05, No Iterations 1
GAMG:  Solving for p, Initial residual = 0.0067767556, Final residual = 5.1847134e-05, No Iterations 8
time step continuity errors : sum local = 4.0397223e-09, global = 9.9490709e-10, cumulative = -2.3730376e-08
GAMG:  Solving for p, Initial residual = 0.0010845622, Final residual = 4.9639194e-08, No Iterations 20
time step continuity errors : sum local = 3.4430496e-12, global = 5.3149344e-13, cumulative = -2.3729845e-08
ExecutionTime = 8.14 s  ClockTime = 8 s

Time = 0.032

Courant Number mean: 0.14295976 max: 0.62588386
smoothSolver:  Solving for Ux, Initial residual = 0.0020083155, Final residual = 1.3783792e-05, No Iterations 1
smoothSolver:  Solving for Uy, Initial residual = 0.0020960278, Final residual = 1.0247288e-05, No Iterations 1
GAMG:  Solving for p, Initial residual = 0.0072028819, Final residual = 6.5168433e-05, No Iterations 7
time step continuity errors : sum local = 4.5038089e-09, global = 1.1055983e-09, cumulative = -2.2624247e-08
GAMG:  Solving for p, Initial residual = 0.0010853651, Final residual = 5.6873764e-08, No Iterations 20
time step continuity errors : sum local = 3.5632718e-12, global = 5.9041774e-13, cumulative = -2.2623656e-08
ExecutionTime = 8.38 s  ClockTime = 8 s

Time = 0.033

Courant Number mean: 0.1430132 max: 0.6271946
smoothSolver:  Solving for Ux, Initial residual = 0.0018613197, Final residual = 1.28043e-05, No Iterations 1
smoothSolver:  Solving for Uy, Initial residual = 0.0019792439, Final residual = 9.8275381e-06, No Iterations 1
GAMG:  Solving for p, Initial residual = 0.0070569152, Final residual = 6.0215647e-05, No Iterations 7
time step continuity errors : sum local = 3.7527801e-09, global = 9.5095525e-10, cumulative = -2.1672701e-08
GAMG:  Solving for p, Initial residual = 0.001038911, Final residual = 5.4524384e-08, No Iterations 20
time step continuity errors : sum local = 3.1141496e-12, global = 5.3123471e-13, cumulative = -2.167217e-08
ExecutionTime = 8.61 s  ClockTime = 9 s

Time = 0.034

Courant Number mean: 0.14306024 max: 0.62844245
smoothSolver:  Solving for Ux, Initial residual = 0.0017404436, Final residual = 1.1989931e-05, No Iterations 1
smoothSolver:  Solving for Uy, Initial residual = 0.0018863213, Final residual = 9.4703318e-06, No Iterations 1
GAMG:  Solving for p, Initial residual = 0.0070335675, Final residual = 5.1956707e-05, No Iterations 7
time step continuity errors : sum local = 2.952631e-09, global = 7.3394817e-10, cumulative = -2.0938222e-08
GAMG:  Solving for p, Initial residual = 0.00097108631, Final residual = 4.9529265e-08, No Iterations 20
time step continuity errors : sum local = 2.6049537e-12, global = 4.3877215e-13, cumulative = -2.0937783e-08
ExecutionTime = 8.84 s  ClockTime = 9 s

Time = 0.035

Courant Number mean: 0.1431021 max: 0.62963831
smoothSolver:  Solving for Ux, Initial residual = 0.0016406249, Final residual = 1.1308017e-05, No Iterations 1
smoothSolver:  Solving for Uy, Initial residual = 0.0018105137, Final residual = 9.1626994e-06, No Iterations 1
GAMG:  Solving for p, Initial residual = 0.0070419441, Final residual = 6.7666753e-05, No Iterations 6
time step continuity errors : sum local = 3.5429382e-09, global = 8.4996268e-10, cumulative = -2.008782e-08
GAMG:  Solving for p, Initial residual = 0.00093327043, Final residual = 4.6667538e-08, No Iterations 20
time step continuity errors : sum local = 2.2935434e-12, global = 4.2010888e-13, cumulative = -2.00874e-08
ExecutionTime = 9.06 s  ClockTime = 9 s

Time = 0.036

Courant Number mean: 0.14313989 max: 0.63079195
smoothSolver:  Solving for Ux, Initial residual = 0.0015619534, Final residual = 1.0752498e-05, No Iterations 1
smoothSolver:  Solving for Uy, Initial residual = 0.0017514218, Final residual = 8.899238e-06, No Iterations 1
GAMG:  Solving for p, Initial residual = 0.0069485042, Final residual = 5.1363665e-05, No Iterations 6
time step continuity errors : sum local = 2.5096827e-09, global = 6.1631611e-10, cumulative = -1.9471084e-08
GAMG:  Solving for p, Initial residual = 0.00086285646, Final residual = 4.2999706e-08, No Iterations 20
time step continuity errors : sum local = 1.9973597e-12, global = 3.7841644e-13, cumulative = -1.9470706e-08
ExecutionTime = 9.29 s  ClockTime = 9 s

Time = 0.037

Courant Number mean: 0.14317458 max: 0.63191132
smoothSolver:  Solving for Ux, Initial residual = 0.0015008268, Final residual = 1.030608e-05, No Iterations 1
smoothSolver:  Solving for Uy, Initial residual = 0.001707047, Final residual = 8.6749727e-06, No Iterations 1
GAMG:  Solving for p, Initial residual = 0.0066370728, Final residual = 4.2473104e-05, No Iterations 6
time step continuity errors : sum local = 1.9627772e-09, global = 4.8711627e-10, cumulative = -1.8983589e-08
GAMG:  Solving for p, Initial residual = 0.0008196092, Final residual = 4.2958901e-08, No Iterations 20
time step continuity errors : sum local = 1.9108595e-12, global = 3.565691e-13, cumulative = -1.8983233e-08
ExecutionTime = 9.52 s  ClockTime = 9 s

Time = 0.038

Courant Number mean: 0.14320705 max: 0.63300303
smoothSolver:  Solving for Ux, Initial residual = 0.0014541152, Final residual = 9.9518998e-06, No Iterations 1
smoothSolver:  Solving for Uy, Initial residual = 0.0016743451, Final residual = 8.4833625e-06, No Iterations 1
GAMG:  Solving for p, Initial residual = 0.0069718321, Final residual = 6.6744352e-05, No Iterations 5
time step continuity errors : sum local = 2.9535153e-09, global = 7.6846568e-10, cumulative = -1.8214767e-08
GAMG:  Solving for p, Initial residual = 0.00077913775, Final residual = 4.5420174e-08, No Iterations 20
time step continuity errors : sum local = 1.9606191e-12, global = 3.740766e-13, cumulative = -1.8214393e-08
ExecutionTime = 9.74 s  ClockTime = 10 s

Time = 0.039

Courant Number mean: 0.14323802 max: 0.63407301
smoothSolver:  Solving for Ux, Initial residual = 0.0014196543, Final residual = 9.6769485e-06, No Iterations 1
smoothSolver:  Solving for Uy, Initial residual = 0.0016506657, Final residual = 8.3033392e-06, No Iterations 1
GAMG:  Solving for p, Initial residual = 0.0065978672, Final residual = 4.3045193e-05, No Iterations 5
time step continuity errors : sum local = 1.8468483e-09, global = 4.5777157e-10, cumulative = -1.7756621e-08
GAMG:  Solving for p, Initial residual = 0.00073535591, Final residual = 3.1901457e-08, No Iterations 20
time step continuity errors : sum local = 1.3476957e-12, global = 2.6352768e-13, cumulative = -1.7756358e-08
ExecutionTime = 9.94 s  ClockTime = 10 s

Time = 0.04

Courant Number mean: 0.14326804 max: 0.6351259
smoothSolver:  Solving for Ux, Initial residual = 0.0013945476, Final residual = 9.4609668e-06, No Iterations 1
smoothSolver:  Solving for Uy, Initial residual = 0.0016342195, Final residual = 8.1433785e-06, No Iterations 1
GAMG:  Solving for p, Initial residual = 0.0062902267, Final residual = 5.5233481e-05, No Iterations 4
time step continuity errors : sum local = 2.3244361e-09, global = 4.6575705e-10, cumulative = -1.7290601e-08
GAMG:  Solving for p, Initial residual = 0.00072056137, Final residual = 2.3193814e-08, No Iterations 20
time step continuity errors : sum local = 9.684473e-13, global = 1.9332697e-13, cumulative = -1.7290407e-08
ExecutionTime = 10.1 s  ClockTime = 10 s

Time = 0.041

Courant Number mean: 0.14329755 max: 0.63616517
smoothSolver:  Solving for Ux, Initial residual = 0.0013767342, Final residual = 9.2905505e-06, No Iterations 1
smoothSolver:  Solving for Uy, Initial residual = 0.0016224988, Final residual = 7.9965724e-06, No Iterations 1
GAMG:  Solving for p, Initial residual = 0.0061835017, Final residual = 3.585214e-05, No Iterations 4
time step continuity errors : sum local = 1.4923446e-09, global = 9.9637135e-11, cumulative = -1.719077e-08
GAMG:  Solving for p, Initial residual = 0.00069240735, Final residual = 7.1338293e-09, No Iterations 20
time step continuity errors : sum local = 2.9600804e-13, global = 4.1816469e-14, cumulative = -1.7190728e-08
ExecutionTime = 10.26 s  ClockTime = 10 s

Time = 0.042

Courant Number mean: 0.14332696 max: 0.63719353
smoothSolver:  Solving for Ux, Initial residual = 0.0013651876, Final residual = 9.1587427e-06, No Iterations 1
smoothSolver:  Solving for Uy, Initial residual = 0.0016148436, Final residual = 7.8639732e-06, No Iterations 1
GAMG:  Solving for p, Initial residual = 0.0059761725, Final residual = 3.7129201e-05, No Iterations 4
time step continuity errors : sum local = 1.5375816e-09, global = -1.5033848e-10, cumulative = -1.7341067e-08
GAMG:  Solving for p, Initial residual = 0.00069156894, Final residual = 1.2390261e-08, No Iterations 20
time step continuity errors : sum local = 5.1177524e-13, global = -8.6722457e-14, cumulative = -1.7341154e-08
ExecutionTime = 10.43 s  ClockTime = 10 s

Time = 0.043

Courant Number mean: 0.14335639 max: 0.6382124
smoothSolver:  Solving for Ux, Initial residual = 0.0013559169, Final residual = 9.0456706e-06, No Iterations 1
smoothSolver:  Solving for Uy, Initial residual = 0.0016085773, Final residual = 7.7405522e-06, No Iterations 1
GAMG:  Solving for p, Initial residual = 0.0054140174, Final residual = 3.5432482e-05, No Iterations 4
time step continuity errors : sum local = 1.4635261e-09, global = -3.7399357e-10, cumulative = -1.7715147e-08
GAMG:  Solving for p, Initial residual = 0.00066212876, Final residual = 1.890546e-08, No Iterations 20
time step continuity errors : sum local = 7.8114807e-13, global = -1.3921624e-13, cumulative = -1.7715286e-08
ExecutionTime = 10.6 s  ClockTime = 11 s

Time = 0.044

Courant Number mean: 0.14338597 max: 0.63922305
smoothSolver:  Solving for Ux, Initial residual = 0.0013498819, Final residual = 8.9546793e-06, No Iterations 1
smoothSolver:  Solving for Uy, Initial residual = 0.00160426, Final residual = 7.6289767e-06, No Iterations 1
GAMG:  Solving for p, Initial residual = 0.0056118911, Final residual = 4.0302242e-05, No Iterations 4
time step continuity errors : sum local = 1.6660471e-09, global = -4.1936503e-10, cumulative = -1.8134652e-08
GAMG:  Solving for p, Initial residual = 0.00067074161, Final residual = 2.0802163e-08, No Iterations 20
time step continuity errors : sum local = 8.6173573e-13, global = -1.5605651e-13, cumulative = -1.8134808e-08
ExecutionTime = 10.76 s  ClockTime = 11 s

Time = 0.045

Courant Number mean: 0.14341585 max: 0.64022653
smoothSolver:  Solving for Ux, Initial residual = 0.0013461111, Final residual = 8.8827944e-06, No Iterations 1
smoothSolver:  Solving for Uy, Initial residual = 0.0016010604, Final residual = 7.5218363e-06, No Iterations 1
GAMG:  Solving for p, Initial residual = 0.0050733069, Final residual = 4.3741536e-05, No Iterations 4
time step continuity errors : sum local = 1.8137815e-09, global = -4.7809476e-10, cumulative = -1.8612902e-08
GAMG:  Solving for p, Initial residual = 0.00065135964, Final residual = 2.1608058e-08, No Iterations 20
time step continuity errors : sum local = 8.988463e-13, global = -1.6456846e-13, cumulative = -1.8613067e-08
ExecutionTime = 10.92 s  ClockTime = 11 s

Time = 0.046

Courant Number mean: 0.14344609 max: 0.64122352
smoothSolver:  Solving for Ux, Initial residual = 0.0013435292, Final residual = 8.8207493e-06, No Iterations 1
smoothSolver:  Solving for Uy, Initial residual = 0.0015989238, Final residual = 7.4222172e-06, No Iterations 1
GAMG:  Solving for p, Initial residual = 0.0047407675, Final residual = 4.4705236e-05, No Iterations 4
time step continuity errors : sum local = 1.8624058e-09, global = -5.0453619e-10, cumulative = -1.9117603e-08
GAMG:  Solving for p, Initial residual = 0.00064137913, Final residual = 2.1539678e-08, No Iterations 20
time step continuity errors : sum local = 9.0071942e-13, global = -1.6543171e-13, cumulative = -1.9117769e-08
ExecutionTime = 11.08 s  ClockTime = 11 s

Time = 0.047

Courant Number mean: 0.14347673 max: 0.64221435
smoothSolver:  Solving for Ux, Initial residual = 0.001341515, Final residual = 8.7659012e-06, No Iterations 1
smoothSolver:  Solving for Uy, Initial residual = 0.0015972994, Final residual = 7.3289256e-06, No Iterations 1
GAMG:  Solving for p, Initial residual = 0.0045147738, Final residual = 4.4014794e-05, No Iterations 4
time step continuity errors : sum local = 1.8434373e-09, global = -5.0443506e-10, cumulative = -1.9622204e-08
GAMG:  Solving for p, Initial residual = 0.00063011546, Final residual = 2.1148572e-08, No Iterations 20
time step continuity errors : sum local = 8.8903023e-13, global = -1.6363926e-13, cumulative = -1.9622367e-08
ExecutionTime = 11.24 s  ClockTime = 11 s

Time = 0.048

Courant Number mean: 0.14350779 max: 0.64319924
smoothSolver:  Solving for Ux, Initial residual = 0.0013397155, Final residual = 8.7158111e-06, No Iterations 1
smoothSolver:  Solving for Uy, Initial residual = 0.0015960139, Final residual = 7.2408703e-06, No Iterations 1
GAMG:  Solving for p, Initial residual = 0.0042518895, Final residual = 2.5378346e-05, No Iterations 5
time step continuity errors : sum local = 1.0685912e-09, global = -2.5520958e-10, cumulative = -1.9877577e-08
GAMG:  Solving for p, Initial residual = 0.0006208958, Final residual = 1.4758231e-08, No Iterations 20
time step continuity errors : sum local = 6.2452929e-13, global = -1.0939262e-13, cumulative = -1.9877686e-08
ExecutionTime = 11.41 s  ClockTime = 11 s

Time = 0.049

Courant Number mean: 0.14353926 max: 0.64417836
smoothSolver:  Solving for Ux, Initial residual = 0.0013379818, Final residual = 8.669303e-06, No Iterations 1
smoothSolver:  Solving for Uy, Initial residual = 0.0015948342, Final residual = 7.1575906e-06, No Iterations 1
GAMG:  Solving for p, Initial residual = 0.00407898, Final residual = 2.4334915e-05, No Iterations 5
time step continuity errors : sum local = 1.0302191e-09, global = -2.4566707e-10, cumulative = -2.0123353e-08
GAMG:  Solving for p, Initial residual = 0.00060785908, Final residual = 1.3906783e-08, No Iterations 20
time step continuity errors : sum local = 5.9171572e-13, global = -1.0364776e-13, cumulative = -2.0123457e-08
ExecutionTime = 11.58 s  ClockTime = 12 s

Time = 0.05

Courant Number mean: 0.14357114 max: 0.64515168
smoothSolver:  Solving for Ux, Initial residual = 0.0013361369, Final residual = 8.6254936e-06, No Iterations 1
smoothSolver:  Solving for Uy, Initial residual = 0.0015937042, Final residual = 7.0785061e-06, No Iterations 1
GAMG:  Solving for p, Initial residual = 0.0039009803, Final residual = 3.8706522e-05, No Iterations 4
time step continuity errors : sum local = 1.6476386e-09, global = -4.5161783e-10, cumulative = -2.0575075e-08
GAMG:  Solving for p, Initial residual = 0.00061546825, Final residual = 1.8387075e-08, No Iterations 20
time step continuity errors : sum local = 7.8537744e-13, global = -1.4421255e-13, cumulative = -2.0575219e-08
ExecutionTime = 11.86 s  ClockTime = 12 s

Time = 0.051

Courant Number mean: 0.14360339 max: 0.64611908
smoothSolver:  Solving for Ux, Initial residual = 0.001334196, Final residual = 8.5825656e-06, No Iterations 1
smoothSolver:  Solving for Uy, Initial residual = 0.0015924771, Final residual = 7.003504e-06, No Iterations 1
GAMG:  Solving for p, Initial residual = 0.0043085866, Final residual = 3.5645765e-05, No Iterations 4
time step continuity errors : sum local = 1.5241622e-09, global = -4.2412025e-10, cumulative = -2.0999339e-08
GAMG:  Solving for p, Initial residual = 0.00061359058, Final residual = 1.7412068e-08, No Iterations 20
time step continuity errors : sum local = 7.4626075e-13, global = -1.3622826e-13, cumulative = -2.0999475e-08
ExecutionTime = 12.03 s  ClockTime = 12 s

Time = 0.052

Courant Number mean: 0.143636 max: 0.64708053
smoothSolver:  Solving for Ux, Initial residual = 0.0013316476, Final residual = 8.5398094e-06, No Iterations 1
smoothSolver:  Solving for Uy, Initial residual = 0.0015908077, Final residual = 6.9322152e-06, No Iterations 1
GAMG:  Solving for p, Initial residual = 0.0039834948, Final residual = 3.3955672e-05, No Iterations 4
time step continuity errors : sum local = 1.4569502e-09, global = -4.0628107e-10, cumulative = -2.1405757e-08
GAMG:  Solving for p, Initial residual = 0.00059540147, Final residual = 1.6244663e-08, No Iterations 20
time step continuity errors : sum local = 6.9866978e-13, global = -1.2773237e-13, cumulative = -2.1405884e-08
ExecutionTime = 12.19 s  ClockTime = 12 s

Time = 0.053

Courant Number mean: 0.14366894 max: 0.64803612
smoothSolver:  Solving for Ux, Initial residual = 0.0013287923, Final residual = 8.4982464e-06, No Iterations 1
smoothSolver:  Solving for Uy, Initial residual = 0.0015891163, Final residual = 6.8648607e-06, No Iterations 1
GAMG:  Solving for p, Initial residual = 0.0038343175, Final residual = 3.1279516e-05, No Iterations 4
time step continuity errors : sum local = 1.3468839e-09, global = -3.7478428e-10, cumulative = -2.1780669e-08
GAMG:  Solving for p, Initial residual = 0.00057604906, Final residual = 1.4984469e-08, No Iterations 20
time step continuity errors : sum local = 6.4652654e-13, global = -1.1750898e-13, cumulative = -2.1780786e-08
ExecutionTime = 12.36 s  ClockTime = 12 s

Time = 0.054

Courant Number mean: 0.14370217 max: 0.64898576
smoothSolver:  Solving for Ux, Initial residual = 0.0013256322, Final residual = 8.4563817e-06, No Iterations 1
smoothSolver:  Solving for Uy, Initial residual = 0.0015870209, Final residual = 6.8011972e-06, No Iterations 1
GAMG:  Solving for p, Initial residual = 0.0038153458, Final residual = 2.9510439e-05, No Iterations 4
time step continuity errors : sum local = 1.2748186e-09, global = -3.5393285e-10, cumulative = -2.2134719e-08
GAMG:  Solving for p, Initial residual = 0.00057075226, Final residual = 1.4064158e-08, No Iterations 20
time step continuity errors : sum local = 6.088003e-13, global = -1.1019206e-13, cumulative = -2.2134829e-08
ExecutionTime = 12.52 s  ClockTime = 12 s

Time = 0.055

Courant Number mean: 0.14373571 max: 0.64992945
smoothSolver:  Solving for Ux, Initial residual = 0.0013223084, Final residual = 8.415111e-06, No Iterations 1
smoothSolver:  Solving for Uy, Initial residual = 0.0015847355, Final residual = 6.7411539e-06, No Iterations 1
GAMG:  Solving for p, Initial residual = 0.0037622957, Final residual = 2.7643726e-05, No Iterations 4
time step continuity errors : sum local = 1.1978679e-09, global = -3.2596755e-10, cumulative = -2.2460797e-08
GAMG:  Solving for p, Initial residual = 0.0005556721, Final residual = 1.289334e-08, No Iterations 20
time step continuity errors : sum local = 5.5949684e-13, global = -1.0088676e-13, cumulative = -2.2460898e-08
ExecutionTime = 12.69 s  ClockTime = 13 s

Time = 0.056

Courant Number mean: 0.1437695 max: 0.65086721
smoothSolver:  Solving for Ux, Initial residual = 0.0013186401, Final residual = 8.3736279e-06, No Iterations 1
smoothSolver:  Solving for Uy, Initial residual = 0.0015821997, Final residual = 6.6844715e-06, No Iterations 1
GAMG:  Solving for p, Initial residual = 0.0036863469, Final residual = 2.6759129e-05, No Iterations 4
time step continuity errors : sum local = 1.1621319e-09, global = -3.124281e-10, cumulative = -2.2773326e-08
GAMG:  Solving for p, Initial residual = 0.00054747511, Final residual = 1.2108883e-08, No Iterations 20
time step continuity errors : sum local = 5.2649862e-13, global = -9.4490785e-14, cumulative = -2.277342e-08
ExecutionTime = 12.86 s  ClockTime = 13 s

Time = 0.057

Courant Number mean: 0.14380352 max: 0.65179909
smoothSolver:  Solving for Ux, Initial residual = 0.0013148143, Final residual = 8.333126e-06, No Iterations 1
smoothSolver:  Solving for Uy, Initial residual = 0.0015795418, Final residual = 6.6318662e-06, No Iterations 1
GAMG:  Solving for p, Initial residual = 0.0035768882, Final residual = 2.5339819e-05, No Iterations 4
time step continuity errors : sum local = 1.1025969e-09, global = -2.8864935e-10, cumulative = -2.3062069e-08
GAMG:  Solving for p, Initial residual = 0.00053929565, Final residual = 1.1321149e-08, No Iterations 20
time step continuity errors : sum local = 4.9306315e-13, global = -8.7936193e-14, cumulative = -2.3062157e-08
ExecutionTime = 13.02 s  ClockTime = 13 s

Time = 0.058

Courant Number mean: 0.14383776 max: 0.65272519
smoothSolver:  Solving for Ux, Initial residual = 0.0013107802, Final residual = 8.2928358e-06, No Iterations 1
smoothSolver:  Solving for Uy, Initial residual = 0.001576646, Final residual = 6.5818781e-06, No Iterations 1
GAMG:  Solving for p, Initial residual = 0.0034756669, Final residual = 2.3015776e-05, No Iterations 4
time step continuity errors : sum local = 1.0030198e-09, global = -2.5004102e-10, cumulative = -2.3312198e-08
GAMG:  Solving for p, Initial residual = 0.00053963894, Final residual = 1.035612e-08, No Iterations 20
time step continuity errors : sum local = 4.5152305e-13, global = -7.981074e-14, cumulative = -2.3312278e-08
ExecutionTime = 13.18 s  ClockTime = 13 s

Time = 0.059

Courant Number mean: 0.14387219 max: 0.65364545
smoothSolver:  Solving for Ux, Initial residual = 0.0013063158, Final residual = 8.2512949e-06, No Iterations 1
smoothSolver:  Solving for Uy, Initial residual = 0.001573341, Final residual = 6.5330029e-06, No Iterations 1
GAMG:  Solving for p, Initial residual = 0.0033772737, Final residual = 2.0016007e-05, No Iterations 4
time step continuity errors : sum local = 8.7308682e-10, global = -1.9821965e-10, cumulative = -2.3510498e-08
GAMG:  Solving for p, Initial residual = 0.00054243937, Final residual = 9.2635767e-09, No Iterations 20
time step continuity errors : sum local = 4.0405011e-13, global = -7.0831658e-14, cumulative = -2.3510569e-08
ExecutionTime = 13.34 s  ClockTime = 13 s

Time = 0.06

Courant Number mean: 0.14390676 max: 0.65455981
smoothSolver:  Solving for Ux, Initial residual = 0.0013017671, Final residual = 8.2078324e-06, No Iterations 1
smoothSolver:  Solving for Uy, Initial residual = 0.0015696769, Final residual = 6.4854221e-06, No Iterations 1
GAMG:  Solving for p, Initial residual = 0.0038118453, Final residual = 3.7059018e-05, No Iterations 3
time step continuity errors : sum local = 1.6160926e-09, global = -2.4957618e-10, cumulative = -2.3760145e-08
GAMG:  Solving for p, Initial residual = 0.00055512132, Final residual = 1.1689244e-08, No Iterations 20
time step continuity errors : sum local = 5.0917774e-13, global = -9.1727521e-14, cumulative = -2.3760237e-08
ExecutionTime = 13.5 s  ClockTime = 13 s

Time = 0.061

Courant Number mean: 0.14394145 max: 0.65546821
smoothSolver:  Solving for Ux, Initial residual = 0.001296507, Final residual = 8.1623784e-06, No Iterations 1
smoothSolver:  Solving for Uy, Initial residual = 0.0015656261, Final residual = 6.4396282e-06, No Iterations 1
GAMG:  Solving for p, Initial residual = 0.003479484, Final residual = 3.4703316e-05, No Iterations 3
time step continuity errors : sum local = 1.5119601e-09, global = -2.8819432e-12, cumulative = -2.3763119e-08
GAMG:  Solving for p, Initial residual = 0.00054348544, Final residual = 9.3584758e-09, No Iterations 20
time step continuity errors : sum local = 4.0723325e-13, global = -7.1024976e-14, cumulative = -2.376319e-08
ExecutionTime = 13.66 s  ClockTime = 14 s

Time = 0.062

Courant Number mean: 0.14397621 max: 0.65637059
smoothSolver:  Solving for Ux, Initial residual = 0.0012907125, Final residual = 8.11526e-06, No Iterations 1
smoothSolver:  Solving for Uy, Initial residual = 0.0015613194, Final residual = 6.3948044e-06, No Iterations 1
GAMG:  Solving for p, Initial residual = 0.003271071, Final residual = 1.5307149e-05, No Iterations 4
time step continuity errors : sum local = 6.6591741e-10, global = -2.3214604e-11, cumulative = -2.3786404e-08
GAMG:  Solving for p, Initial residual = 0.00053535276, Final residual = 8.9569372e-09, No Iterations 19
time step continuity errors : sum local = 3.8924243e-13, global = -5.5886356e-14, cumulative = -2.378646e-08
ExecutionTime = 13.82 s  ClockTime = 14 s

Time = 0.063

Courant Number mean: 0.14401101 max: 0.65726693
smoothSolver:  Solving for Ux, Initial residual = 0.0012846174, Final residual = 8.0678863e-06, No Iterations 1
smoothSolver:  Solving for Uy, Initial residual = 0.0015569965, Final residual = 6.3512141e-06, No Iterations 1
GAMG:  Solving for p, Initial residual = 0.003155688, Final residual = 1.6106794e-05, No Iterations 4
time step continuity errors : sum local = 6.998142e-10, global = 3.266653e-11, cumulative = -2.3753794e-08
GAMG:  Solving for p, Initial residual = 0.00053189533, Final residual = 7.2114766e-09, No Iterations 19
time step continuity errors : sum local = 3.129997e-13, global = -2.5318232e-14, cumulative = -2.3753819e-08
ExecutionTime = 13.98 s  ClockTime = 14 s

Time = 0.064

Courant Number mean: 0.14404584 max: 0.65815714
smoothSolver:  Solving for Ux, Initial residual = 0.0012783928, Final residual = 8.0205372e-06, No Iterations 1
smoothSolver:  Solving for Uy, Initial residual = 0.0015525442, Final residual = 6.3088836e-06, No Iterations 1
GAMG:  Solving for p, Initial residual = 0.0030681747, Final residual = 1.5969076e-05, No Iterations 4
time step continuity errors : sum local = 6.9289052e-10, global = 6.0481683e-11, cumulative = -2.3693337e-08
GAMG:  Solving for p, Initial residual = 0.0005274542, Final residual = 9.9364774e-09, No Iterations 18
time step continuity errors : sum local = 4.3073702e-13, global = -7.1718016e-15, cumulative = -2.3693344e-08
ExecutionTime = 14.14 s  ClockTime = 14 s

Time = 0.065

Courant Number mean: 0.14408068 max: 0.65904131
smoothSolver:  Solving for Ux, Initial residual = 0.0012720651, Final residual = 7.9736608e-06, No Iterations 1
smoothSolver:  Solving for Uy, Initial residual = 0.0015482609, Final residual = 6.268276e-06, No Iterations 1
GAMG:  Solving for p, Initial residual = 0.0029537237, Final residual = 1.5735343e-05, No Iterations 4
time step continuity errors : sum local = 6.8186569e-10, global = 8.2526656e-11, cumulative = -2.3610818e-08
GAMG:  Solving for p, Initial residual = 0.00052503961, Final residual = 9.7662733e-09, No Iterations 18
time step continuity errors : sum local = 4.2277224e-13, global = 2.1717215e-14, cumulative = -2.3610796e-08
ExecutionTime = 14.3 s  ClockTime = 14 s

Time = 0.066

Courant Number mean: 0.14411551 max: 0.65991957
smoothSolver:  Solving for Ux, Initial residual = 0.0012656865, Final residual = 7.9272675e-06, No Iterations 1
smoothSolver:  Solving for Uy, Initial residual = 0.0015440006, Final residual = 6.2294712e-06, No Iterations 1
GAMG:  Solving for p, Initial residual = 0.0028591859, Final residual = 1.5636942e-05, No Iterations 4
time step continuity errors : sum local = 6.7662857e-10, global = 9.9594368e-11, cumulative = -2.3511202e-08
GAMG:  Solving for p, Initial residual = 0.00052010983, Final residual = 9.879776e-09, No Iterations 18
time step continuity errors : sum local = 4.2705329e-13, global = 4.1604463e-14, cumulative = -2.351116e-08
ExecutionTime = 14.45 s  ClockTime = 14 s

Time = 0.067

Courant Number mean: 0.14415033 max: 0.66079208
smoothSolver:  Solving for Ux, Initial residual = 0.0012592977, Final residual = 7.8814159e-06, No Iterations 1
smoothSolver:  Solving for Uy, Initial residual = 0.0015396283, Final residual = 6.192414e-06, No Iterations 1
GAMG:  Solving for p, Initial residual = 0.0027828219, Final residual = 1.5401306e-05, No Iterations 4
time step continuity errors : sum local = 6.6541716e-10, global = 1.0760958e-10, cumulative = -2.340355e-08
GAMG:  Solving for p, Initial residual = 0.00051572446, Final residual = 7.1889474e-09, No Iterations 19
time step continuity errors : sum local = 3.1026757e-13, global = 3.297184e-14, cumulative = -2.3403517e-08
ExecutionTime = 14.61 s  ClockTime = 15 s

Time = 0.068

Courant Number mean: 0.14418515 max: 0.66165898
smoothSolver:  Solving for Ux, Initial residual = 0.0012529303, Final residual = 7.8363681e-06, No Iterations 1
smoothSolver:  Solving for Uy, Initial residual = 0.0015352065, Final residual = 6.1569323e-06, No Iterations 1
GAMG:  Solving for p, Initial residual = 0.0027115751, Final residual = 1.4972669e-05, No Iterations 4
time step continuity errors : sum local = 6.4594161e-10, global = 1.0416787e-10, cumulative = -2.329935e-08
GAMG:  Solving for p, Initial residual = 0.00051163182, Final residual = 7.2648391e-09, No Iterations 19
time step continuity errors : sum local = 3.1311258e-13, global = 3.0879144e-14, cumulative = -2.3299319e-08
ExecutionTime = 14.77 s  ClockTime = 15 s

Time = 0.069

Courant Number mean: 0.14421996 max: 0.66252046
smoothSolver:  Solving for Ux, Initial residual = 0.0012469818, Final residual = 7.7925327e-06, No Iterations 1
smoothSolver:  Solving for Uy, Initial residual = 0.0015308603, Final residual = 6.1229446e-06, No Iterations 1
GAMG:  Solving for p, Initial residual = 0.003129903, Final residual = 3.107711e-05, No Iterations 3
time step continuity errors : sum local = 1.3383101e-09, global = 2.4600157e-10, cumulative = -2.3053317e-08
GAMG:  Solving for p, Initial residual = 0.00052046586, Final residual = 9.5742932e-09, No Iterations 18
time step continuity errors : sum local = 4.1178602e-13, global = 3.9034855e-14, cumulative = -2.3053278e-08
ExecutionTime = 14.92 s  ClockTime = 15 s

Time = 0.07

Courant Number mean: 0.14425476 max: 0.66337679
smoothSolver:  Solving for Ux, Initial residual = 0.0012408119, Final residual = 7.7494103e-06, No Iterations 1
smoothSolver:  Solving for Uy, Initial residual = 0.0015263477, Final residual = 6.0902006e-06, No Iterations 1
GAMG:  Solving for p, Initial residual = 0.0028799347, Final residual = 1.3900511e-05, No Iterations 4
time step continuity errors : sum local = 5.9741055e-10, global = 1.0234655e-10, cumulative = -2.2950932e-08
GAMG:  Solving for p, Initial residual = 0.00051041489, Final residual = 7.6097723e-09, No Iterations 19
time step continuity errors : sum local = 3.2666975e-13, global = 3.1442529e-14, cumulative = -2.29509e-08
ExecutionTime = 15.08 s  ClockTime = 15 s

Time = 0.071

Courant Number mean: 0.14428955 max: 0.66422815
smoothSolver:  Solving for Ux, Initial residual = 0.0012346609, Final residual = 7.7077115e-06, No Iterations 1
smoothSolver:  Solving for Uy, Initial residual = 0.0015220179, Final residual = 6.0585396e-06, No Iterations 1
GAMG:  Solving for p, Initial residual = 0.0028263831, Final residual = 1.4999261e-05, No Iterations 4
time step continuity errors : sum local = 6.435051e-10, global = 1.2234505e-10, cumulative = -2.2828555e-08
GAMG:  Solving for p, Initial residual = 0.00050670152, Final residual = 7.6514533e-09, No Iterations 19
time step continuity errors : sum local = 3.2789146e-13, global = 4.0397501e-14, cumulative = -2.2828515e-08
ExecutionTime = 15.24 s  ClockTime = 15 s

Time = 0.072

Courant Number mean: 0.14432432 max: 0.66507464
smoothSolver:  Solving for Ux, Initial residual = 0.0012285886, Final residual = 7.6670716e-06, No Iterations 1
smoothSolver:  Solving for Uy, Initial residual = 0.00151765, Final residual = 6.0273325e-06, No Iterations 1
GAMG:  Solving for p, Initial residual = 0.0027427686, Final residual = 1.4210178e-05, No Iterations 4
time step continuity errors : sum local = 6.0862962e-10, global = 1.1435492e-10, cumulative = -2.271416e-08
GAMG:  Solving for p, Initial residual = 0.00050457377, Final residual = 7.7632344e-09, No Iterations 19
time step continuity errors : sum local = 3.3212277e-13, global = 3.993717e-14, cumulative = -2.271412e-08
ExecutionTime = 15.39 s  ClockTime = 15 s

Time = 0.073

Courant Number mean: 0.14435906 max: 0.66591634
smoothSolver:  Solving for Ux, Initial residual = 0.0012225738, Final residual = 7.6271795e-06, No Iterations 1
smoothSolver:  Solving for Uy, Initial residual = 0.0015132088, Final residual = 5.9969291e-06, No Iterations 1
GAMG:  Solving for p, Initial residual = 0.0027220608, Final residual = 1.3880724e-05, No Iterations 4
time step continuity errors : sum local = 5.9359941e-10, global = 1.1062308e-10, cumulative = -2.2603497e-08
GAMG:  Solving for p, Initial residual = 0.00050389597, Final residual = 7.8742213e-09, No Iterations 19
time step continuity errors : sum local = 3.3640685e-13, global = 3.857816e-14, cumulative = -2.2603458e-08
ExecutionTime = 15.55 s  ClockTime = 15 s

Time = 0.074

Courant Number mean: 0.14439379 max: 0.66675336
smoothSolver:  Solving for Ux, Initial residual = 0.0012166137, Final residual = 7.5882528e-06, No Iterations 1
smoothSolver:  Solving for Uy, Initial residual = 0.0015088165, Final residual = 5.9668325e-06, No Iterations 1
GAMG:  Solving for p, Initial residual = 0.0026781423, Final residual = 1.3779259e-05, No Iterations 4
time step continuity errors : sum local = 5.8845145e-10, global = 1.1357851e-10, cumulative = -2.248988e-08
GAMG:  Solving for p, Initial residual = 0.00049974316, Final residual = 8.0096775e-09, No Iterations 19
time step continuity errors : sum local = 3.4173275e-13, global = 4.1125046e-14, cumulative = -2.2489838e-08
ExecutionTime = 15.71 s  ClockTime = 16 s

Time = 0.075

Courant Number mean: 0.1444285 max: 0.66758578
smoothSolver:  Solving for Ux, Initial residual = 0.0012107179, Final residual = 7.5502067e-06, No Iterations 1
smoothSolver:  Solving for Uy, Initial residual = 0.0015044971, Final residual = 5.9371931e-06, No Iterations 1
GAMG:  Solving for p, Initial residual = 0.0026745254, Final residual = 1.3917545e-05, No Iterations 4
time step continuity errors : sum local = 5.9352708e-10, global = 1.2169871e-10, cumulative = -2.236814e-08
GAMG:  Solving for p, Initial residual = 0.0005042734, Final residual = 8.0924918e-09, No Iterations 19
time step continuity errors : sum local = 3.4477182e-13, global = 4.6549213e-14, cumulative = -2.2368093e-08
ExecutionTime = 16 s  ClockTime = 16 s

Time = 0.076

Courant Number mean: 0.14446319 max: 0.6684137
smoothSolver:  Solving for Ux, Initial residual = 0.0012048988, Final residual = 7.5130251e-06, No Iterations 1
smoothSolver:  Solving for Uy, Initial residual = 0.0015002613, Final residual = 5.9081227e-06, No Iterations 1
GAMG:  Solving for p, Initial residual = 0.0026552157, Final residual = 1.3786331e-05, No Iterations 4
time step continuity errors : sum local = 5.8707101e-10, global = 1.1823733e-10, cumulative = -2.2249856e-08
GAMG:  Solving for p, Initial residual = 0.00049959251, Final residual = 8.0341351e-09, No Iterations 19
time step continuity errors : sum local = 3.4178779e-13, global = 4.3259732e-14, cumulative = -2.2249813e-08
ExecutionTime = 16.16 s  ClockTime = 16 s

Time = 0.077

Courant Number mean: 0.14449786 max: 0.66923721
smoothSolver:  Solving for Ux, Initial residual = 0.0011991525, Final residual = 7.4767929e-06, No Iterations 1
smoothSolver:  Solving for Uy, Initial residual = 0.0014961166, Final residual = 5.8802592e-06, No Iterations 1
GAMG:  Solving for p, Initial residual = 0.0025736348, Final residual = 1.3646245e-05, No Iterations 4
time step continuity errors : sum local = 5.8028171e-10, global = 1.2149418e-10, cumulative = -2.2128318e-08
GAMG:  Solving for p, Initial residual = 0.00049536611, Final residual = 8.2357081e-09, No Iterations 19
time step continuity errors : sum local = 3.4986042e-13, global = 4.8447224e-14, cumulative = -2.212827e-08
ExecutionTime = 16.33 s  ClockTime = 16 s

Time = 0.078

Courant Number mean: 0.14453251 max: 0.6700564
smoothSolver:  Solving for Ux, Initial residual = 0.0011934558, Final residual = 7.4411617e-06, No Iterations 1
smoothSolver:  Solving for Uy, Initial residual = 0.0014920254, Final residual = 5.8531653e-06, No Iterations 1
GAMG:  Solving for p, Initial residual = 0.0024888474, Final residual = 1.3298774e-05, No Iterations 4
time step continuity errors : sum local = 5.6466952e-10, global = 1.1366209e-10, cumulative = -2.2014608e-08
GAMG:  Solving for p, Initial residual = 0.00049928031, Final residual = 8.120509e-09, No Iterations 19
time step continuity errors : sum local = 3.444636e-13, global = 4.3460136e-14, cumulative = -2.2014564e-08
ExecutionTime = 16.49 s  ClockTime = 16 s

Time = 0.079

Courant Number mean: 0.14456714 max: 0.67087137
smoothSolver:  Solving for Ux, Initial residual = 0.0011881917, Final residual = 7.4065324e-06, No Iterations 1
smoothSolver:  Solving for Uy, Initial residual = 0.0014883106, Final residual = 5.8266685e-06, No Iterations 1
GAMG:  Solving for p, Initial residual = 0.0028637532, Final residual = 2.8082703e-05, No Iterations 3
time step continuity errors : sum local = 1.1902001e-09, global = 2.402912e-10, cumulative = -2.1774273e-08
GAMG:  Solving for p, Initial residual = 0.00050868588, Final residual = 9.9945634e-09, No Iterations 18
time step continuity errors : sum local = 4.2305783e-13, global = 5.5589169e-14, cumulative = -2.1774218e-08
ExecutionTime = 16.64 s  ClockTime = 17 s

Time = 0.08

Courant Number mean: 0.14460176 max: 0.67168212
smoothSolver:  Solving for Ux, Initial residual = 0.0011826455, Final residual = 7.3724798e-06, No Iterations 1
smoothSolver:  Solving for Uy, Initial residual = 0.0014844214, Final residual = 5.8006913e-06, No Iterations 1
GAMG:  Solving for p, Initial residual = 0.0026095954, Final residual = 1.3074209e-05, No Iterations 4
time step continuity errors : sum local = 5.5297501e-10, global = 1.156244e-10, cumulative = -2.1658593e-08
GAMG:  Solving for p, Initial residual = 0.0004964177, Final residual = 8.2583877e-09, No Iterations 19
time step continuity errors : sum local = 3.4887856e-13, global = 4.6254126e-14, cumulative = -2.1658547e-08
ExecutionTime = 16.8 s  ClockTime = 17 s

Time = 0.081

Courant Number mean: 0.14463636 max: 0.67248881
smoothSolver:  Solving for Ux, Initial residual = 0.001177162, Final residual = 7.3396139e-06, No Iterations 1
smoothSolver:  Solving for Uy, Initial residual = 0.0014806561, Final residual = 5.7753601e-06, No Iterations 1
GAMG:  Solving for p, Initial residual = 0.0024889963, Final residual = 1.3398526e-05, No Iterations 4
time step continuity errors : sum local = 5.6567965e-10, global = 1.0811793e-10, cumulative = -2.1550429e-08
GAMG:  Solving for p, Initial residual = 0.00050009882, Final residual = 7.9439812e-09, No Iterations 19
time step continuity errors : sum local = 3.3504841e-13, global = 3.9178154e-14, cumulative = -2.155039e-08
ExecutionTime = 16.96 s  ClockTime = 17 s

Time = 0.082

Courant Number mean: 0.14467093 max: 0.67329157
smoothSolver:  Solving for Ux, Initial residual = 0.0011717619, Final residual = 7.3078092e-06, No Iterations 1
smoothSolver:  Solving for Uy, Initial residual = 0.001476953, Final residual = 5.7503352e-06, No Iterations 1
GAMG:  Solving for p, Initial residual = 0.0024515055, Final residual = 1.3321736e-05, No Iterations 4
time step continuity errors : sum local = 5.6160535e-10, global = 1.0244063e-10, cumulative = -2.1447949e-08
GAMG:  Solving for p, Initial residual = 0.00049636632, Final residual = 7.7597296e-09, No Iterations 19
time step continuity errors : sum local = 3.2683485e-13, global = 3.6220541e-14, cumulative = -2.1447913e-08
ExecutionTime = 17.12 s  ClockTime = 17 s

Time = 0.083

Courant Number mean: 0.14470549 max: 0.67409057
smoothSolver:  Solving for Ux, Initial residual = 0.0011664703, Final residual = 7.2768784e-06, No Iterations 1
smoothSolver:  Solving for Uy, Initial residual = 0.0014733153, Final residual = 5.7258277e-06, No Iterations 1
GAMG:  Solving for p, Initial residual = 0.0023886073, Final residual = 1.310768e-05, No Iterations 4
time step continuity errors : sum local = 5.5185401e-10, global = 9.8292231e-11, cumulative = -2.1349621e-08
GAMG:  Solving for p, Initial residual = 0.00048700297, Final residual = 7.8658351e-09, No Iterations 19
time step continuity errors : sum local = 3.3083858e-13, global = 4.0525898e-14, cumulative = -2.134958e-08
ExecutionTime = 17.28 s  ClockTime = 17 s

Time = 0.084

Courant Number mean: 0.14474002 max: 0.67488592
smoothSolver:  Solving for Ux, Initial residual = 0.0011612913, Final residual = 7.2465206e-06, No Iterations 1
smoothSolver:  Solving for Uy, Initial residual = 0.0014696324, Final residual = 5.7021216e-06, No Iterations 1
GAMG:  Solving for p, Initial residual = 0.0023485365, Final residual = 1.2944184e-05, No Iterations 4
time step continuity errors : sum local = 5.4422903e-10, global = 8.832806e-11, cumulative = -2.1261252e-08
GAMG:  Solving for p, Initial residual = 0.00048181104, Final residual = 7.837214e-09, No Iterations 19
time step continuity errors : sum local = 3.292252e-13, global = 3.5049333e-14, cumulative = -2.1261217e-08
ExecutionTime = 17.44 s  ClockTime = 17 s

Time = 0.085

Courant Number mean: 0.14477454 max: 0.67567776
smoothSolver:  Solving for Ux, Initial residual = 0.0011562123, Final residual = 7.2170639e-06, No Iterations 1
smoothSolver:  Solving for Uy, Initial residual = 0.0014659885, Final residual = 5.679001e-06, No Iterations 1
GAMG:  Solving for p, Initial residual = 0.0023302232, Final residual = 1.2901887e-05, No Iterations 4
time step continuity errors : sum local = 5.4181268e-10, global = 8.233711e-11, cumulative = -2.117888e-08
GAMG:  Solving for p, Initial residual = 0.00047975261, Final residual = 7.8203768e-09, No Iterations 19
time step continuity errors : sum local = 3.2817642e-13, global = 3.063238e-14, cumulative = -2.1178849e-08
ExecutionTime = 17.6 s  ClockTime = 18 s

Time = 0.086

Courant Number mean: 0.14480904 max: 0.67646617
smoothSolver:  Solving for Ux, Initial residual = 0.0011512144, Final residual = 7.1885663e-06, No Iterations 1
smoothSolver:  Solving for Uy, Initial residual = 0.001462366, Final residual = 5.6563584e-06, No Iterations 1
GAMG:  Solving for p, Initial residual = 0.0023227543, Final residual = 1.2850182e-05, No Iterations 4
time step continuity errors : sum local = 5.3906052e-10, global = 7.9968996e-11, cumulative = -2.109888e-08
GAMG:  Solving for p, Initial residual = 0.00047784944, Final residual = 7.8033761e-09, No Iterations 19
time step continuity errors : sum local = 3.2707649e-13, global = 3.2919515e-14, cumulative = -2.1098848e-08
ExecutionTime = 17.76 s  ClockTime = 18 s

Time = 0.087

Courant Number mean: 0.14484354 max: 0.67725123
smoothSolver:  Solving for Ux, Initial residual = 0.0011462857, Final residual = 7.1608028e-06, No Iterations 1
smoothSolver:  Solving for Uy, Initial residual = 0.0014587289, Final residual = 5.6342677e-06, No Iterations 1
GAMG:  Solving for p, Initial residual = 0.0022730696, Final residual = 1.2793572e-05, No Iterations 4
time step continuity errors : sum local = 5.3606173e-10, global = 8.1142907e-11, cumulative = -2.1017705e-08
GAMG:  Solving for p, Initial residual = 0.00047542639, Final residual = 7.9096331e-09, No Iterations 19
time step continuity errors : sum local = 3.3114277e-13, global = 3.4956343e-14, cumulative = -2.101767e-08
ExecutionTime = 17.92 s  ClockTime = 18 s

Time = 0.088

Courant Number mean: 0.14487802 max: 0.67803303
smoothSolver:  Solving for Ux, Initial residual = 0.0011414122, Final residual = 7.1334573e-06, No Iterations 1
smoothSolver:  Solving for Uy, Initial residual = 0.0014550771, Final residual = 5.6128918e-06, No Iterations 1
GAMG:  Solving for p, Initial residual = 0.002246372, Final residual = 1.2834055e-05, No Iterations 4
time step continuity errors : sum local = 5.3713954e-10, global = 8.260214e-11, cumulative = -2.0935068e-08
GAMG:  Solving for p, Initial residual = 0.00047340745, Final residual = 8.0249026e-09, No Iterations 19
time step continuity errors : sum local = 3.3558994e-13, global = 3.7460659e-14, cumulative = -2.093503e-08
ExecutionTime = 18.08 s  ClockTime = 18 s

Time = 0.089

Courant Number mean: 0.1449125 max: 0.6788116
smoothSolver:  Solving for Ux, Initial residual = 0.0011365966, Final residual = 7.1066153e-06, No Iterations 1
smoothSolver:  Solving for Uy, Initial residual = 0.0014514229, Final residual = 5.5921459e-06, No Iterations 1
GAMG:  Solving for p, Initial residual = 0.0022193887, Final residual = 1.2597279e-05, No Iterations 4
time step continuity errors : sum local = 5.266299e-10, global = 7.6279645e-11, cumulative = -2.085875e-08
GAMG:  Solving for p, Initial residual = 0.00047391039, Final residual = 8.117361e-09, No Iterations 19
time step continuity errors : sum local = 3.3908497e-13, global = 3.3545383e-14, cumulative = -2.0858717e-08
ExecutionTime = 18.24 s  ClockTime = 18 s

Time = 0.09

Courant Number mean: 0.14494697 max: 0.679587
smoothSolver:  Solving for Ux, Initial residual = 0.0011322307, Final residual = 7.0804236e-06, No Iterations 1
smoothSolver:  Solving for Uy, Initial residual = 0.0014479602, Final residual = 5.572153e-06, No Iterations 1
GAMG:  Solving for p, Initial residual = 0.0026658702, Final residual = 2.6657125e-05, No Iterations 3
time step continuity errors : sum local = 1.1127481e-09, global = 1.8232295e-10, cumulative = -2.0676394e-08
GAMG:  Solving for p, Initial residual = 0.0004811461, Final residual = 9.278644e-09, No Iterations 18
time step continuity errors : sum local = 3.8688198e-13, global = 3.6584809e-14, cumulative = -2.0676357e-08
ExecutionTime = 18.4 s  ClockTime = 18 s

Time = 0.091

Courant Number mean: 0.14498143 max: 0.68035927
smoothSolver:  Solving for Ux, Initial residual = 0.0011275469, Final residual = 7.0546557e-06, No Iterations 1
smoothSolver:  Solving for Uy, Initial residual = 0.0014443592, Final residual = 5.5528118e-06, No Iterations 1
GAMG:  Solving for p, Initial residual = 0.0024251932, Final residual = 1.2648544e-05, No Iterations 4
time step continuity errors : sum local = 5.2709392e-10, global = 8.1846821e-11, cumulative = -2.0594511e-08
GAMG:  Solving for p, Initial residual = 0.0004729424, Final residual = 8.2379255e-09, No Iterations 19
time step continuity errors : sum local = 3.4296821e-13, global = 4.1299868e-14, cumulative = -2.0594469e-08
ExecutionTime = 18.56 s  ClockTime = 18 s

Time = 0.092

Courant Number mean: 0.14501589 max: 0.68112845
smoothSolver:  Solving for Ux, Initial residual = 0.0011228814, Final residual = 7.0295091e-06, No Iterations 1
smoothSolver:  Solving for Uy, Initial residual = 0.0014409564, Final residual = 5.5341677e-06, No Iterations 1
GAMG:  Solving for p, Initial residual = 0.002355515, Final residual = 1.3037112e-05, No Iterations 4
time step continuity errors : sum local = 5.4257708e-10, global = 7.3640737e-11, cumulative = -2.0520829e-08
GAMG:  Solving for p, Initial residual = 0.00047221745, Final residual = 8.0980077e-09, No Iterations 19
time step continuity errors : sum local = 3.3677788e-13, global = 3.3222652e-14, cumulative = -2.0520795e-08
ExecutionTime = 18.73 s  ClockTime = 19 s

Time = 0.093

Courant Number mean: 0.14505033 max: 0.68189458
smoothSolver:  Solving for Ux, Initial residual = 0.0011182762, Final residual = 7.005114e-06, No Iterations 1
smoothSolver:  Solving for Uy, Initial residual = 0.0014377616, Final residual = 5.5162867e-06, No Iterations 1
GAMG:  Solving for p, Initial residual = 0.0023474501, Final residual = 1.2773942e-05, No Iterations 4
time step continuity errors : sum local = 5.3110913e-10, global = 6.4285663e-11, cumulative = -2.045651e-08
GAMG:  Solving for p, Initial residual = 0.00047300694, Final residual = 8.142892e-09, No Iterations 19
time step continuity errors : sum local = 3.3834602e-13, global = 2.776116e-14, cumulative = -2.0456482e-08
ExecutionTime = 18.88 s  ClockTime = 19 s

Time = 0.094

Courant Number mean: 0.14508476 max: 0.68265768
smoothSolver:  Solving for Ux, Initial residual = 0.0011137358, Final residual = 6.9812926e-06, No Iterations 1
smoothSolver:  Solving for Uy, Initial residual = 0.0014346354, Final residual = 5.4989994e-06, No Iterations 1
GAMG:  Solving for p, Initial residual = 0.0022803197, Final residual = 1.2959051e-05, No Iterations 4
time step continuity errors : sum local = 5.3835236e-10, global = 8.0089489e-11, cumulative = -2.0376392e-08
GAMG:  Solving for p, Initial residual = 0.00047283097, Final residual = 8.215502e-09, No Iterations 19
time step continuity errors : sum local = 3.4100526e-13, global = 4.6520632e-14, cumulative = -2.0376346e-08
ExecutionTime = 19.04 s  ClockTime = 19 s

Time = 0.095

Courant Number mean: 0.14511917 max: 0.68341778
smoothSolver:  Solving for Ux, Initial residual = 0.0011092501, Final residual = 6.957375e-06, No Iterations 1
smoothSolver:  Solving for Uy, Initial residual = 0.0014313989, Final residual = 5.482493e-06, No Iterations 1
GAMG:  Solving for p, Initial residual = 0.0022514086, Final residual = 1.2193118e-05, No Iterations 4
time step continuity errors : sum local = 5.0598001e-10, global = 5.7303772e-11, cumulative = -2.0319042e-08
GAMG:  Solving for p, Initial residual = 0.00047246153, Final residual = 8.2630994e-09, No Iterations 19
time step continuity errors : sum local = 3.4266958e-13, global = 2.9594612e-14, cumulative = -2.0319012e-08
ExecutionTime = 19.2 s  ClockTime = 19 s

Time = 0.096

Courant Number mean: 0.14515358 max: 0.68417492
smoothSolver:  Solving for Ux, Initial residual = 0.0011048259, Final residual = 6.9344256e-06, No Iterations 1
smoothSolver:  Solving for Uy, Initial residual = 0.0014282599, Final residual = 5.4663426e-06, No Iterations 1
GAMG:  Solving for p, Initial residual = 0.0021945741, Final residual = 1.2305025e-05, No Iterations 4
time step continuity errors : sum local = 5.1022581e-10, global = 6.2832337e-11, cumulative = -2.025618e-08
GAMG:  Solving for p, Initial residual = 0.00047060493, Final residual = 8.3446745e-09, No Iterations 19
time step continuity errors : sum local = 3.4581185e-13, global = 3.5270098e-14, cumulative = -2.0256145e-08
ExecutionTime = 19.37 s  ClockTime = 19 s

Time = 0.097

Courant Number mean: 0.14518798 max: 0.68492912
smoothSolver:  Solving for Ux, Initial residual = 0.0011004496, Final residual = 6.9118811e-06, No Iterations 1
smoothSolver:  Solving for Uy, Initial residual = 0.0014252032, Final residual = 5.4508358e-06, No Iterations 1
GAMG:  Solving for p, Initial residual = 0.0021678407, Final residual = 1.2161377e-05, No Iterations 4
time step continuity errors : sum local = 5.0388052e-10, global = 6.1702314e-11, cumulative = -2.0194443e-08
GAMG:  Solving for p, Initial residual = 0.00047185617, Final residual = 8.4403284e-09, No Iterations 19
time step continuity errors : sum local = 3.4948493e-13, global = 3.6126314e-14, cumulative = -2.0194406e-08
ExecutionTime = 19.53 s  ClockTime = 19 s

Time = 0.098

Courant Number mean: 0.14522236 max: 0.68568041
smoothSolver:  Solving for Ux, Initial residual = 0.0010961222, Final residual = 6.8897125e-06, No Iterations 1
smoothSolver:  Solving for Uy, Initial residual = 0.0014221147, Final residual = 5.4358052e-06, No Iterations 1
GAMG:  Solving for p, Initial residual = 0.0020852666, Final residual = 1.1951471e-05, No Iterations 4
time step continuity errors : sum local = 4.9479103e-10, global = 6.0467908e-11, cumulative = -2.0133939e-08
GAMG:  Solving for p, Initial residual = 0.00047189519, Final residual = 8.5410431e-09, No Iterations 19
time step continuity errors : sum local = 3.5337779e-13, global = 3.6471914e-14, cumulative = -2.0133902e-08
ExecutionTime = 19.69 s  ClockTime = 20 s

Time = 0.099

Courant Number mean: 0.14525673 max: 0.6864288
smoothSolver:  Solving for Ux, Initial residual = 0.0010918269, Final residual = 6.867813e-06, No Iterations 1
smoothSolver:  Solving for Uy, Initial residual = 0.0014189832, Final residual = 5.4214201e-06, No Iterations 1
GAMG:  Solving for p, Initial residual = 0.0020390212, Final residual = 1.1889585e-05, No Iterations 4
time step continuity errors : sum local = 4.9184111e-10, global = 6.2635324e-11, cumulative = -2.0071267e-08
GAMG:  Solving for p, Initial residual = 0.00047043073, Final residual = 8.6652776e-09, No Iterations 19
time step continuity errors : sum local = 3.5822652e-13, global = 4.0861105e-14, cumulative = -2.0071226e-08
ExecutionTime = 19.85 s  ClockTime = 20 s

Time = 0.1

Courant Number mean: 0.14529109 max: 0.68717431
smoothSolver:  Solving for Ux, Initial residual = 0.0010875718, Final residual = 6.8461796e-06, No Iterations 1
smoothSolver:  Solving for Uy, Initial residual = 0.0014158489, Final residual = 5.4075918e-06, No Iterations 1
GAMG:  Solving for p, Initial residual = 0.0020203698, Final residual = 1.2010254e-05, No Iterations 4
time step continuity errors : sum local = 4.9640932e-10, global = 6.7979784e-11, cumulative = -2.0003246e-08
GAMG:  Solving for p, Initial residual = 0.00047025891, Final residual = 8.8497629e-09, No Iterations 19
time step continuity errors : sum local = 3.6551954e-13, global = 4.8785766e-14, cumulative = -2.0003197e-08
ExecutionTime = 20.14 s  ClockTime = 20 s

Time = 0.101

Courant Number mean: 0.14532543 max: 0.68791695
smoothSolver:  Solving for Ux, Initial residual = 0.0010837453, Final residual = 6.8248607e-06, No Iterations 1
smoothSolver:  Solving for Uy, Initial residual = 0.0014127629, Final residual = 5.3941063e-06, No Iterations 1
GAMG:  Solving for p, Initial residual = 0.0024151085, Final residual = 1.1891563e-05, No Iterations 4
time step continuity errors : sum local = 4.9084953e-10, global = 6.0702027e-11, cumulative = -1.9942495e-08
GAMG:  Solving for p, Initial residual = 0.00047483804, Final residual = 8.9173747e-09, No Iterations 19
time step continuity errors : sum local = 3.6769697e-13, global = 4.0943505e-14, cumulative = -1.9942454e-08
ExecutionTime = 20.3 s  ClockTime = 20 s

Time = 0.102

Courant Number mean: 0.14535977 max: 0.68865673
smoothSolver:  Solving for Ux, Initial residual = 0.0010795816, Final residual = 6.8038498e-06, No Iterations 1
smoothSolver:  Solving for Uy, Initial residual = 0.0014094827, Final residual = 5.3809632e-06, No Iterations 1
GAMG:  Solving for p, Initial residual = 0.002185305, Final residual = 1.1948167e-05, No Iterations 4
time step continuity errors : sum local = 4.9247685e-10, global = 6.3372905e-11, cumulative = -1.9879081e-08
GAMG:  Solving for p, Initial residual = 0.00046983338, Final residual = 8.9774163e-09, No Iterations 19
time step continuity errors : sum local = 3.6971899e-13, global = 4.4325089e-14, cumulative = -1.9879037e-08
ExecutionTime = 20.46 s  ClockTime = 20 s

Time = 0.103

Courant Number mean: 0.14539411 max: 0.68939366
smoothSolver:  Solving for Ux, Initial residual = 0.0010754116, Final residual = 6.783278e-06, No Iterations 1
smoothSolver:  Solving for Uy, Initial residual = 0.0014062711, Final residual = 5.3681911e-06, No Iterations 1
GAMG:  Solving for p, Initial residual = 0.0021237102, Final residual = 1.1785638e-05, No Iterations 4
time step continuity errors : sum local = 4.8525381e-10, global = 5.8279128e-11, cumulative = -1.9820758e-08
GAMG:  Solving for p, Initial residual = 0.00046782835, Final residual = 9.0297029e-09, No Iterations 19
time step continuity errors : sum local = 3.7153489e-13, global = 4.1160312e-14, cumulative = -1.9820717e-08
ExecutionTime = 20.62 s  ClockTime = 21 s

Time = 0.104

Courant Number mean: 0.14542843 max: 0.69012776
smoothSolver:  Solving for Ux, Initial residual = 0.0010712866, Final residual = 6.7631355e-06, No Iterations 1
smoothSolver:  Solving for Uy, Initial residual = 0.0014031165, Final residual = 5.3557693e-06, No Iterations 1
GAMG:  Solving for p, Initial residual = 0.0021091242, Final residual = 1.2158816e-05, No Iterations 4
time step continuity errors : sum local = 5.0019094e-10, global = 6.6634476e-11, cumulative = -1.9754082e-08
GAMG:  Solving for p, Initial residual = 0.0004659691, Final residual = 9.1088873e-09, No Iterations 19
time step continuity errors : sum local = 3.7449558e-13, global = 4.7332659e-14, cumulative = -1.9754035e-08
ExecutionTime = 20.78 s  ClockTime = 21 s

Time = 0.105

Courant Number mean: 0.14546274 max: 0.69085904
[...]
GAMG:  Solving for p, Initial residual = 0.0022106552, Final residual = 4.9262496e-08, No Iterations 20
time step continuity errors : sum local = 2.8345799e-12, global = 5.0037223e-13, cumulative = -8.1939307e-08
ExecutionTime = 874.12 s  ClockTime = 875 s

Time = 4.975

Courant Number mean: 0.25448031 max: 0.90309748
smoothSolver:  Solving for Ux, Initial residual = 0.00036265201, Final residual = 9.6860455e-06, No Iterations 1
smoothSolver:  Solving for Uy, Initial residual = 0.001510168, Final residual = 4.3216499e-05, No Iterations 1
GAMG:  Solving for p, Initial residual = 0.0024886613, Final residual = 1.4894982e-05, No Iterations 5
time step continuity errors : sum local = 8.5779017e-10, global = -3.4463695e-11, cumulative = -8.1973771e-08
GAMG:  Solving for p, Initial residual = 0.0022109127, Final residual = 4.9331678e-08, No Iterations 20
time step continuity errors : sum local = 2.8392841e-12, global = 5.0050294e-13, cumulative = -8.197327e-08
ExecutionTime = 874.41 s  ClockTime = 876 s

Time = 4.976

Courant Number mean: 0.25449392 max: 0.90309685
smoothSolver:  Solving for Ux, Initial residual = 0.00036391733, Final residual = 9.6943268e-06, No Iterations 1
smoothSolver:  Solving for Uy, Initial residual = 0.0015106914, Final residual = 4.3233384e-05, No Iterations 1
GAMG:  Solving for p, Initial residual = 0.003998197, Final residual = 2.0676797e-05, No Iterations 5
time step continuity errors : sum local = 1.191069e-09, global = -4.10696e-11, cumulative = -8.201434e-08
GAMG:  Solving for p, Initial residual = 0.002261525, Final residual = 4.7127269e-08, No Iterations 20
time step continuity errors : sum local = 2.7132395e-12, global = 4.901446e-13, cumulative = -8.201385e-08
ExecutionTime = 874.58 s  ClockTime = 876 s

Time = 4.977

Courant Number mean: 0.25450746 max: 0.90309611
smoothSolver:  Solving for Ux, Initial residual = 0.00036411316, Final residual = 9.6941848e-06, No Iterations 1
smoothSolver:  Solving for Uy, Initial residual = 0.0015123161, Final residual = 4.3265078e-05, No Iterations 1
GAMG:  Solving for p, Initial residual = 0.0048861385, Final residual = 4.2808188e-05, No Iterations 4
time step continuity errors : sum local = 2.4669533e-09, global = -1.7162669e-11, cumulative = -8.2031012e-08
GAMG:  Solving for p, Initial residual = 0.0022719951, Final residual = 3.8764808e-08, No Iterations 20
time step continuity errors : sum local = 2.2336532e-12, global = 3.9563516e-13, cumulative = -8.2030617e-08
ExecutionTime = 874.75 s  ClockTime = 876 s

Time = 4.978

Courant Number mean: 0.25452095 max: 0.90309525
smoothSolver:  Solving for Ux, Initial residual = 0.00036548752, Final residual = 9.6970882e-06, No Iterations 1
smoothSolver:  Solving for Uy, Initial residual = 0.0015132295, Final residual = 4.3270797e-05, No Iterations 1
GAMG:  Solving for p, Initial residual = 0.0053614412, Final residual = 4.2791565e-05, No Iterations 4
time step continuity errors : sum local = 2.4699245e-09, global = -2.4967406e-11, cumulative = -8.2055584e-08
GAMG:  Solving for p, Initial residual = 0.00227624, Final residual = 4.1692957e-08, No Iterations 20
time step continuity errors : sum local = 2.4079974e-12, global = 4.4281234e-13, cumulative = -8.2055141e-08
ExecutionTime = 874.92 s  ClockTime = 876 s

Time = 4.979

Courant Number mean: 0.25453438 max: 0.90309427
smoothSolver:  Solving for Ux, Initial residual = 0.00036578577, Final residual = 9.7032282e-06, No Iterations 1
smoothSolver:  Solving for Uy, Initial residual = 0.0015153421, Final residual = 4.3283317e-05, No Iterations 1
GAMG:  Solving for p, Initial residual = 0.006418429, Final residual = 5.0054653e-05, No Iterations 4
time step continuity errors : sum local = 2.8943717e-09, global = -3.2598893e-11, cumulative = -8.208774e-08
GAMG:  Solving for p, Initial residual = 0.0023039111, Final residual = 4.0176033e-08, No Iterations 20
time step continuity errors : sum local = 2.3222281e-12, global = 4.4741846e-13, cumulative = -8.2087293e-08
ExecutionTime = 875.08 s  ClockTime = 876 s

Time = 4.98

Courant Number mean: 0.25454777 max: 0.90309318
smoothSolver:  Solving for Ux, Initial residual = 0.00036585445, Final residual = 9.701848e-06, No Iterations 1
smoothSolver:  Solving for Uy, Initial residual = 0.0015157636, Final residual = 4.3288487e-05, No Iterations 1
GAMG:  Solving for p, Initial residual = 0.0056608567, Final residual = 5.0361958e-05, No Iterations 4
time step continuity errors : sum local = 2.917737e-09, global = -1.7112148e-11, cumulative = -8.2104405e-08
GAMG:  Solving for p, Initial residual = 0.0022410527, Final residual = 3.4264641e-08, No Iterations 20
time step continuity errors : sum local = 1.9882086e-12, global = 3.5424043e-13, cumulative = -8.2104051e-08
ExecutionTime = 875.25 s  ClockTime = 876 s

Time = 4.981

Courant Number mean: 0.25456116 max: 0.90309197
smoothSolver:  Solving for Ux, Initial residual = 0.0003659682, Final residual = 9.7022698e-06, No Iterations 1
smoothSolver:  Solving for Uy, Initial residual = 0.0015171218, Final residual = 4.3296964e-05, No Iterations 1
GAMG:  Solving for p, Initial residual = 0.0066772318, Final residual = 5.0782451e-05, No Iterations 4
time step continuity errors : sum local = 2.9482361e-09, global = -2.0565198e-11, cumulative = -8.2124616e-08
GAMG:  Solving for p, Initial residual = 0.0022955752, Final residual = 3.9474539e-08, No Iterations 20
time step continuity errors : sum local = 2.2902818e-12, global = 4.3992683e-13, cumulative = -8.2124176e-08
ExecutionTime = 875.42 s  ClockTime = 877 s

Time = 4.982

Courant Number mean: 0.25457452 max: 0.90309065
smoothSolver:  Solving for Ux, Initial residual = 0.0003659554, Final residual = 9.7027035e-06, No Iterations 1
smoothSolver:  Solving for Uy, Initial residual = 0.0015171159, Final residual = 4.3306386e-05, No Iterations 1
GAMG:  Solving for p, Initial residual = 0.0057698413, Final residual = 5.2019406e-05, No Iterations 4
time step continuity errors : sum local = 3.0249784e-09, global = -5.2185626e-12, cumulative = -8.2129395e-08
GAMG:  Solving for p, Initial residual = 0.0022349354, Final residual = 3.3819622e-08, No Iterations 20
time step continuity errors : sum local = 1.9697627e-12, global = 3.5175497e-13, cumulative = -8.2129043e-08
ExecutionTime = 875.59 s  ClockTime = 877 s

Time = 4.983

Courant Number mean: 0.25458791 max: 0.90308922
smoothSolver:  Solving for Ux, Initial residual = 0.00036606399, Final residual = 9.704065e-06, No Iterations 1
smoothSolver:  Solving for Uy, Initial residual = 0.0015184103, Final residual = 4.3316522e-05, No Iterations 1
GAMG:  Solving for p, Initial residual = 0.0068332305, Final residual = 4.6303281e-05, No Iterations 4
time step continuity errors : sum local = 2.6965412e-09, global = -1.3180172e-11, cumulative = -8.2142223e-08
GAMG:  Solving for p, Initial residual = 0.0022934566, Final residual = 4.303559e-08, No Iterations 20
time step continuity errors : sum local = 2.5027217e-12, global = 4.8222318e-13, cumulative = -8.2141741e-08
ExecutionTime = 875.75 s  ClockTime = 877 s

Time = 4.984

Courant Number mean: 0.25460132 max: 0.90308767
smoothSolver:  Solving for Ux, Initial residual = 0.00036611199, Final residual = 9.7054458e-06, No Iterations 1
smoothSolver:  Solving for Uy, Initial residual = 0.0015183951, Final residual = 4.332791e-05, No Iterations 1
GAMG:  Solving for p, Initial residual = 0.0059494166, Final residual = 5.1052346e-05, No Iterations 4
time step continuity errors : sum local = 2.9754623e-09, global = -1.2499719e-11, cumulative = -8.2154241e-08
GAMG:  Solving for p, Initial residual = 0.0022342131, Final residual = 3.414215e-08, No Iterations 20
time step continuity errors : sum local = 1.9921044e-12, global = 3.5613399e-13, cumulative = -8.2153884e-08
ExecutionTime = 875.93 s  ClockTime = 877 s

Time = 4.985

Courant Number mean: 0.25461475 max: 0.903086
smoothSolver:  Solving for Ux, Initial residual = 0.00036698394, Final residual = 9.7077876e-06, No Iterations 1
smoothSolver:  Solving for Uy, Initial residual = 0.0015190887, Final residual = 4.3339318e-05, No Iterations 1
GAMG:  Solving for p, Initial residual = 0.0062138812, Final residual = 4.6146141e-05, No Iterations 4
time step continuity errors : sum local = 2.6945843e-09, global = -1.88739e-11, cumulative = -8.2172758e-08
GAMG:  Solving for p, Initial residual = 0.0022529398, Final residual = 3.9306977e-08, No Iterations 20
time step continuity errors : sum local = 2.2946437e-12, global = 4.2647747e-13, cumulative = -8.2172332e-08
ExecutionTime = 876.09 s  ClockTime = 877 s

Time = 4.986

Courant Number mean: 0.25462806 max: 0.90308421
smoothSolver:  Solving for Ux, Initial residual = 0.00036629135, Final residual = 9.7091929e-06, No Iterations 1
smoothSolver:  Solving for Uy, Initial residual = 0.0015206636, Final residual = 4.3349914e-05, No Iterations 1
GAMG:  Solving for p, Initial residual = 0.0064619669, Final residual = 5.4494271e-05, No Iterations 4
time step continuity errors : sum local = 3.1858247e-09, global = -9.5697866e-12, cumulative = -8.2181902e-08
GAMG:  Solving for p, Initial residual = 0.0022565617, Final residual = 3.7048212e-08, No Iterations 20
time step continuity errors : sum local = 2.1663605e-12, global = 4.0877623e-13, cumulative = -8.2181493e-08
ExecutionTime = 876.25 s  ClockTime = 877 s

Time = 4.987

Courant Number mean: 0.25464145 max: 0.90308231
smoothSolver:  Solving for Ux, Initial residual = 0.0003672946, Final residual = 9.7120113e-06, No Iterations 1
smoothSolver:  Solving for Uy, Initial residual = 0.0015203379, Final residual = 4.3362665e-05, No Iterations 1
GAMG:  Solving for p, Initial residual = 0.0067748345, Final residual = 4.8551585e-05, No Iterations 4
time step continuity errors : sum local = 2.8415225e-09, global = -2.0722169e-11, cumulative = -8.2202215e-08
GAMG:  Solving for p, Initial residual = 0.0022567922, Final residual = 3.9182378e-08, No Iterations 20
time step continuity errors : sum local = 2.2935017e-12, global = 4.3333384e-13, cumulative = -8.2201782e-08
ExecutionTime = 876.42 s  ClockTime = 878 s

Time = 4.988

Courant Number mean: 0.25465474 max: 0.90308029
smoothSolver:  Solving for Ux, Initial residual = 0.00036719175, Final residual = 9.7138919e-06, No Iterations 1
smoothSolver:  Solving for Uy, Initial residual = 0.0015214354, Final residual = 4.3373239e-05, No Iterations 1
GAMG:  Solving for p, Initial residual = 0.0058427689, Final residual = 5.0252201e-05, No Iterations 4
time step continuity errors : sum local = 2.9455357e-09, global = -1.7200155e-11, cumulative = -8.2218982e-08
GAMG:  Solving for p, Initial residual = 0.0022208611, Final residual = 3.2976893e-08, No Iterations 20
time step continuity errors : sum local = 1.9331145e-12, global = 3.4227858e-13, cumulative = -8.221864e-08
ExecutionTime = 876.58 s  ClockTime = 878 s

Time = 4.989

Courant Number mean: 0.25466803 max: 0.90307815
smoothSolver:  Solving for Ux, Initial residual = 0.00036753592, Final residual = 9.7162372e-06, No Iterations 1
smoothSolver:  Solving for Uy, Initial residual = 0.0015224385, Final residual = 4.338463e-05, No Iterations 1
GAMG:  Solving for p, Initial residual = 0.0073529192, Final residual = 5.3577164e-05, No Iterations 4
time step continuity errors : sum local = 3.1435353e-09, global = -1.8444218e-11, cumulative = -8.2237084e-08
GAMG:  Solving for p, Initial residual = 0.002280356, Final residual = 3.9503984e-08, No Iterations 20
time step continuity errors : sum local = 2.3174871e-12, global = 4.5294733e-13, cumulative = -8.2236631e-08
ExecutionTime = 876.75 s  ClockTime = 878 s

Time = 4.99

Courant Number mean: 0.25468127 max: 0.9030759
smoothSolver:  Solving for Ux, Initial residual = 0.00036755841, Final residual = 9.7182653e-06, No Iterations 1
smoothSolver:  Solving for Uy, Initial residual = 0.0015227255, Final residual = 4.3396278e-05, No Iterations 1
GAMG:  Solving for p, Initial residual = 0.0064018453, Final residual = 5.5002331e-05, No Iterations 4
time step continuity errors : sum local = 3.2311918e-09, global = -1.332031e-11, cumulative = -8.2249951e-08
GAMG:  Solving for p, Initial residual = 0.0022256145, Final residual = 3.2773449e-08, No Iterations 20
time step continuity errors : sum local = 1.926596e-12, global = 3.4605184e-13, cumulative = -8.2249605e-08
ExecutionTime = 876.92 s  ClockTime = 878 s

Time = 4.991

Courant Number mean: 0.25469453 max: 0.90307353
smoothSolver:  Solving for Ux, Initial residual = 0.00036773757, Final residual = 9.7207594e-06, No Iterations 1
smoothSolver:  Solving for Uy, Initial residual = 0.0015236681, Final residual = 4.3406746e-05, No Iterations 1
GAMG:  Solving for p, Initial residual = 0.0075058496, Final residual = 5.5391346e-05, No Iterations 4
time step continuity errors : sum local = 3.2577946e-09, global = -2.8315096e-11, cumulative = -8.227792e-08
GAMG:  Solving for p, Initial residual = 0.0022802564, Final residual = 3.8390388e-08, No Iterations 20
time step continuity errors : sum local = 2.2557746e-12, global = 4.4418621e-13, cumulative = -8.2277476e-08
ExecutionTime = 877.09 s  ClockTime = 878 s

Time = 4.992

Courant Number mean: 0.25470777 max: 0.90307104
smoothSolver:  Solving for Ux, Initial residual = 0.00036780087, Final residual = 9.7228111e-06, No Iterations 1
smoothSolver:  Solving for Uy, Initial residual = 0.0015238275, Final residual = 4.3418413e-05, No Iterations 1
GAMG:  Solving for p, Initial residual = 0.0066221939, Final residual = 5.7262129e-05, No Iterations 4
time step continuity errors : sum local = 3.3693484e-09, global = -9.6626537e-12, cumulative = -8.2287139e-08
GAMG:  Solving for p, Initial residual = 0.0022242892, Final residual = 3.2634719e-08, No Iterations 20
time step continuity errors : sum local = 1.9216231e-12, global = 3.4589107e-13, cumulative = -8.2286793e-08
ExecutionTime = 877.25 s  ClockTime = 878 s

Time = 4.993

Courant Number mean: 0.25472106 max: 0.90306843
smoothSolver:  Solving for Ux, Initial residual = 0.00036793281, Final residual = 9.72517e-06, No Iterations 1
smoothSolver:  Solving for Uy, Initial residual = 0.0015247162, Final residual = 4.3428506e-05, No Iterations 1
GAMG:  Solving for p, Initial residual = 0.0075301329, Final residual = 5.2032369e-05, No Iterations 4
time step continuity errors : sum local = 3.0647269e-09, global = -1.5108528e-11, cumulative = -8.2301901e-08
GAMG:  Solving for p, Initial residual = 0.0022759266, Final residual = 4.0584091e-08, No Iterations 20
time step continuity errors : sum local = 2.3881142e-12, global = 4.6811227e-13, cumulative = -8.2301433e-08
ExecutionTime = 877.42 s  ClockTime = 879 s

Time = 4.994

Courant Number mean: 0.25473432 max: 0.9030657
smoothSolver:  Solving for Ux, Initial residual = 0.0003679367, Final residual = 9.7273162e-06, No Iterations 1
smoothSolver:  Solving for Uy, Initial residual = 0.0015247461, Final residual = 4.3438961e-05, No Iterations 1
GAMG:  Solving for p, Initial residual = 0.0066697615, Final residual = 5.6051156e-05, No Iterations 4
time step continuity errors : sum local = 3.3028425e-09, global = -2.1118647e-11, cumulative = -8.2322552e-08
GAMG:  Solving for p, Initial residual = 0.0022229299, Final residual = 3.2379289e-08, No Iterations 20
time step continuity errors : sum local = 1.9089902e-12, global = 3.4200853e-13, cumulative = -8.232221e-08
ExecutionTime = 877.58 s  ClockTime = 879 s

Time = 4.995

Courant Number mean: 0.25474755 max: 0.90306286
smoothSolver:  Solving for Ux, Initial residual = 0.0003687512, Final residual = 9.7300778e-06, No Iterations 1
smoothSolver:  Solving for Uy, Initial residual = 0.0015251938, Final residual = 4.3448819e-05, No Iterations 1
GAMG:  Solving for p, Initial residual = 0.0067982524, Final residual = 4.8167653e-05, No Iterations 4
time step continuity errors : sum local = 2.8405245e-09, global = -2.8887243e-11, cumulative = -8.2351097e-08
GAMG:  Solving for p, Initial residual = 0.0022391765, Final residual = 3.7167301e-08, No Iterations 20
time step continuity errors : sum local = 2.1898018e-12, global = 4.1148435e-13, cumulative = -8.2350686e-08
ExecutionTime = 877.75 s  ClockTime = 879 s

Time = 4.996

Courant Number mean: 0.25476073 max: 0.90305989
smoothSolver:  Solving for Ux, Initial residual = 0.0003681098, Final residual = 9.7319991e-06, No Iterations 1
smoothSolver:  Solving for Uy, Initial residual = 0.0015262613, Final residual = 4.345899e-05, No Iterations 1
GAMG:  Solving for p, Initial residual = 0.0069254733, Final residual = 5.62232e-05, No Iterations 4
time step continuity errors : sum local = 3.3180314e-09, global = -2.0324993e-11, cumulative = -8.2371011e-08
GAMG:  Solving for p, Initial residual = 0.0022415513, Final residual = 3.6647751e-08, No Iterations 20
time step continuity errors : sum local = 2.1646974e-12, global = 4.1222252e-13, cumulative = -8.2370598e-08
ExecutionTime = 877.91 s  ClockTime = 879 s

Time = 4.997

Courant Number mean: 0.25477396 max: 0.90305681
smoothSolver:  Solving for Ux, Initial residual = 0.00036902611, Final residual = 9.7348831e-06, No Iterations 1
smoothSolver:  Solving for Uy, Initial residual = 0.0015263095, Final residual = 4.3469251e-05, No Iterations 1
GAMG:  Solving for p, Initial residual = 0.0071618348, Final residual = 5.2771183e-05, No Iterations 4
time step continuity errors : sum local = 3.1181576e-09, global = -3.226574e-11, cumulative = -8.2402864e-08
GAMG:  Solving for p, Initial residual = 0.0022422289, Final residual = 3.5420925e-08, No Iterations 20
time step continuity errors : sum local = 2.0915671e-12, global = 3.9809834e-13, cumulative = -8.2402466e-08
ExecutionTime = 878.08 s  ClockTime = 879 s

Time = 4.998

Courant Number mean: 0.25478708 max: 0.90305361
smoothSolver:  Solving for Ux, Initial residual = 0.00036831671, Final residual = 9.7369261e-06, No Iterations 1
smoothSolver:  Solving for Uy, Initial residual = 0.0015273011, Final residual = 4.3480248e-05, No Iterations 1
GAMG:  Solving for p, Initial residual = 0.0070253017, Final residual = 5.4279388e-05, No Iterations 4
time step continuity errors : sum local = 3.209517e-09, global = -2.8333642e-11, cumulative = -8.24308e-08
GAMG:  Solving for p, Initial residual = 0.0022419633, Final residual = 3.6446345e-08, No Iterations 20
time step continuity errors : sum local = 2.1558486e-12, global = 4.1415943e-13, cumulative = -8.2430385e-08
ExecutionTime = 878.25 s  ClockTime = 879 s

Time = 4.999

Courant Number mean: 0.25480032 max: 0.90305028
smoothSolver:  Solving for Ux, Initial residual = 0.00036924153, Final residual = 9.7397428e-06, No Iterations 1
smoothSolver:  Solving for Uy, Initial residual = 0.001527303, Final residual = 4.349107e-05, No Iterations 1
GAMG:  Solving for p, Initial residual = 0.0073191186, Final residual = 5.5345897e-05, No Iterations 4
time step continuity errors : sum local = 3.2749474e-09, global = -4.0814532e-11, cumulative = -8.24712e-08
GAMG:  Solving for p, Initial residual = 0.0022429159, Final residual = 3.4521672e-08, No Iterations 20
time step continuity errors : sum local = 2.0416642e-12, global = 3.9148133e-13, cumulative = -8.2470809e-08
ExecutionTime = 878.41 s  ClockTime = 880 s

Time = 5

Courant Number mean: 0.25481349 max: 0.90304684
smoothSolver:  Solving for Ux, Initial residual = 0.00036850058, Final residual = 9.7417607e-06, No Iterations 1
smoothSolver:  Solving for Uy, Initial residual = 0.0015282319, Final residual = 4.3501284e-05, No Iterations 1
GAMG:  Solving for p, Initial residual = 0.0070800046, Final residual = 5.7914624e-05, No Iterations 4
time step continuity errors : sum local = 3.4290728e-09, global = -3.1454724e-11, cumulative = -8.2502263e-08
GAMG:  Solving for p, Initial residual = 0.002240903, Final residual = 3.5032218e-08, No Iterations 20
time step continuity errors : sum local = 2.0747768e-12, global = 3.990298e-13, cumulative = -8.2501864e-08
ExecutionTime = 878.71 s  ClockTime = 880 s

End

Finalising parallel run
