/*---------------------------------------------------------------------------*\
| =========                 |                                                 |
| \\      /  F ield         | OpenFOAM: The Open Source CFD Toolbox           |
|  \\    /   O peration     | Version:  2012                                  |
|   \\  /    A nd           | Website:  www.openfoam.com                      |
|    \\/     M anipulation  |                                                 |
\*---------------------------------------------------------------------------*/
Build  : _269d0ffd5c-20210619 OPENFOAM=2012 patch=210618
Arch   : "LSB;label=32;scalar=64"
Exec   : surfaceTransformPoints -write-scale (1000 1000 1000) mesh_outside.stl mesh_outside.stl
Date   : Jul 02 2021
Time   : 00:00:54
Host   : pop-os
PID    : 258468
I/O    : uncollated
Case   : /home/dileepn/FreeCAD/CfdOfRuns/FlowInCyl/meshCase
nProcs : 1
trapFpe: Floating point exception trapping enabled (FOAM_SIGFPE).
fileModificationChecking : Monitoring run-time modified files using timeStampMaster (fileModificationSkew 5, maxFileModificationPolls 20)
allowSystemOperations : Allowing user-supplied system call operations

// * * * * * * * * * * * * * * * * * * * * * * * * * * * * * * * * * * * * * //
Reading surf from "mesh_outside.stl" ...
Writing surf to "mesh_outside.stl" ...
Scaling points uniformly by 1000
End

