/*---------------------------------------------------------------------------*\
| =========                 |                                                 |
| \\      /  F ield         | OpenFOAM: The Open Source CFD Toolbox           |
|  \\    /   O peration     | Version:  2012                                  |
|   \\  /    A nd           | Website:  www.openfoam.com                      |
|    \\/     M anipulation  |                                                 |
\*---------------------------------------------------------------------------*/
Build  : _269d0ffd5c-20210619 OPENFOAM=2012 patch=210618
Arch   : "LSB;label=32;scalar=64"
Exec   : extrudeMesh
Date   : Jul 04 2021
Time   : 16:15:22
Host   : pop-os
PID    : 498143
I/O    : uncollated
Case   : /home/dileepn/FreeCAD/CfdOfRuns/vonKarman2D/meshCase
nProcs : 1
trapFpe: Floating point exception trapping enabled (FOAM_SIGFPE).
fileModificationChecking : Monitoring run-time modified files using timeStampMaster (fileModificationSkew 5, maxFileModificationPolls 20)
allowSystemOperations : Allowing user-supplied system call operations

// * * * * * * * * * * * * * * * * * * * * * * * * * * * * * * * * * * * * * //
Create time

Create mesh for time = 0

Selecting extrudeModel linearNormal
Selected extrudeModel for linearNormal using coeffs 
{
    thickness       0.002;
}

Extruding from patch using model linearNormal
Flipping normals before extruding
Not collapsing any edges after extrusion

Extruding patches 1(patch_1_0) on mesh "/home/dileepn/FreeCAD/CfdOfRuns/vonKarman2D/meshCase/"

Create mesh for time = 0

Adding overall 0 processor patches.
Mesh bounding box : (0 0 -0.002) (0.200000002980232 0.100000001490116 0)
        with span : (0.200000002980232 0.100000001490116 0.002)
Merge distance    : 0

Writing mesh to "/home/dileepn/FreeCAD/CfdOfRuns/vonKarman2D/meshCase/constant/region0"

End

